         427
 CSIRO Nanostructure Databank - Neutral Graphene Oxide Data Set
C         27.92504        27.42612        -1.52958
C         27.80132        28.83030        -1.16645
C         26.80439        29.31941        -0.29527
C         27.94516        31.48271        -0.16787
C         26.85656        30.64002         0.14356
C         27.92131        32.89830         0.26358
C         27.78491        33.89722        -0.91097
C         28.01105        35.87990         0.30933
C         27.22062        35.22050        -0.58096
C         27.94470        37.23495         0.81872
C         26.79057        37.98845         0.86665
C         27.99328        40.09159         1.30050
C         26.81505        39.38294         1.13703
C         28.03084        41.54551         1.36602
C         26.82193        42.29882         1.43553
C         28.06076        44.38666         1.48922
C         26.83139        43.67317         1.49241
C         28.09628        45.80517         1.55480
C         30.43638        27.35256        -1.56687
C         29.11225        26.76872        -1.70563
C         30.62499        28.74033        -1.81296
C         28.78314        29.75372        -1.57850
C         30.29914        31.72760        -1.19611
C         28.98915        31.00928        -0.99112
C         30.33352        33.17035        -0.74176
C         29.09333        33.77189        -0.13320
C         30.48985        35.84225         0.43690
C         29.22898        35.05675         0.67307
C         30.49529        37.16166         0.79547
C         29.23580        37.83810         1.20455
C         30.53582        40.07546         1.15738
C         29.26667        39.35029         1.40328
C         30.51797        41.49476         1.21089
C         29.26951        42.22700         1.36682
C         30.51223        44.38777         1.46543
C         29.28655        43.66199         1.43254
C         30.53886        45.79444         1.50282
C         29.29377        46.48614         1.55031
C         32.75982        24.61051        -0.40569
C         31.57706        25.26983        -0.76797
C         32.88619        27.36741        -1.24318
C         31.57584        26.61679        -1.14240
C         32.79988        28.77790        -0.64541
C         31.63917        29.54307        -1.25177
C         32.82510        31.65464        -0.88946
C         31.59127        30.95271        -1.13817
C         32.85594        33.09104        -0.72049
C         31.63561        33.82524        -0.45619
C         32.90959        35.91068        -0.04962
C         31.68587        35.14925        -0.00089
C         32.95972        37.23528         0.34968
C         31.79882        37.87537         1.07287
C         32.94550        40.09999         0.71835
C         31.73767        39.38364         0.92139
C         32.95340        41.51558         0.86522
C         31.74746        42.19062         1.15600
C         33.07111        44.37172         1.41209
C         31.76748        43.62245         1.50818
C         33.03589        45.84460         1.29033
C         31.81086        46.52524         1.41597
C         33.01496        48.64703         1.22107
C         31.83699        47.94758         1.37583
C         35.30612        23.08929        -0.06953
C         35.24565        24.57650         0.17515
C         34.00797        25.26434        -0.37412
C         35.30011        27.35520        -0.65959
C         34.08098        26.62877        -0.69203
C         35.28738        28.78342        -0.84544
C         34.10479        29.51382        -0.84876
C         35.32102        31.66645        -0.88997
C         34.07306        30.94619        -0.89555
C         35.31714        33.09741        -0.86290
C         34.08276        33.78669        -0.73139
C         35.37331        35.95979        -0.50256
C         34.05962        35.29810        -0.81062
C         35.39022        37.31858        -0.16300
C         34.16401        38.00843         0.17990
C         35.38854        40.14970         0.20846
C         34.17408        39.39368         0.40720
C         35.38461        41.53755         0.31294
C         34.19653        42.26161         0.70805
C         35.56050        44.35164         1.02414
C         34.24507        43.63271         0.92757
C         35.49629        45.85715         0.91673
C         34.26085        46.55554         1.09097
C         35.50666        48.69233         0.92654
C         34.25986        47.98098         1.06929
C         35.54451        50.12371         0.92125
C         37.76197        23.10527        -0.00783
C         36.47801        22.41906        -0.05570
C         37.73645        24.51804        -0.22416
C         36.53570        25.25631        -0.24758
C         37.78358        27.39954        -0.52095
C         36.53846        26.64896        -0.51078
C         37.78864        28.77727        -0.63328
C         36.57852        29.48526        -1.16480
C         37.77871        31.66493        -0.87891
C         36.55499        30.96529        -0.88634
C         37.76365        33.08196        -1.03060
C         36.56047        33.80815        -0.98098
C         37.80259        35.93557        -0.76744
C         36.59244        35.25569        -0.80831
C         37.90873        37.28302        -0.11400
C         36.62221        38.05374        -0.14394
C         37.86509        40.18007        -0.24141
C         36.63227        39.44615        -0.06193
C         37.86379        41.59659        -0.30722
C         36.57607        42.30039        -0.12049
C         37.89037        44.50111         0.05136
C         36.60341        43.77985         0.09655
C         37.93525        45.80890         0.43854
C         36.70363        46.54338         0.75591
C         37.97141        48.69968         0.65948
C         36.72222        47.98052         0.78531
C         37.97629        50.13551         0.68365
C         36.72172        50.81295         0.80351
C         40.11054        20.36264         0.99009
C         38.96842        21.03035         0.70548
C         40.24456        23.07731         0.20813
C         38.97374        22.40401         0.23080
C         40.31014        24.47215        -0.25652
C         39.00041        25.22536        -0.48357
C         40.26172        27.35443        -0.38091
C         39.03391        26.68573        -0.40515
C         40.29965        28.80756        -0.45903
C         39.01220        29.55383        -0.23070
C         40.26087        31.64967        -0.76059
C         39.04493        30.97635        -0.73113
C         40.31269        33.07737        -1.00428
C         39.03951        33.76221        -1.28535
C         40.32752        35.96145        -0.94922
C         39.04344        35.29265        -1.17605
C         40.32824        37.38588        -0.80853
C         39.11395        38.07230        -0.54754
C         40.30977        40.21320        -0.68471
C         39.09581        39.48014        -0.48180
C         40.29677        41.63815        -0.65674
C         39.05222        42.32057        -0.49741
C         40.33853        44.49838        -0.55182
C         39.00822        43.81505        -0.71451
C         40.28396        46.00017        -0.51753
C         39.27168        46.50028         0.54329
C         40.40974        48.70718         0.40276
C         39.18927        48.00714         0.49651
C         40.42973        50.12162         0.58071
C         39.20957        50.84333         0.65109
C         40.44603        52.96527         0.73663
C         39.27728        52.29762         0.63754
C         42.57864        20.43861         1.53722
C         41.46195        20.94186         0.66894
C         42.66166        23.18250         0.72960
C         41.42990        22.44862         0.59122
C         42.69696        24.58497         0.47956
C         41.51038        25.26581         0.03687
C         42.68268        27.47835         0.22408
C         41.48167        26.64235        -0.13896
C         42.77702        28.69667        -0.68741
C         41.48798        29.48613        -0.58348
C         42.73488        31.61599        -0.60179
C         41.52552        30.93246        -0.63143
C         42.74153        33.10754        -0.38904
C         41.49555        33.78854        -0.90014
C         42.77608        35.93718        -0.94871
C         41.52355        35.23435        -0.95833
C         42.78123        37.35630        -1.07726
C         41.54671        38.09023        -0.96882
C         42.73006        40.25068        -1.14868
C         41.53415        39.52301        -0.93198
C         42.73465        41.65939        -1.04538
C         41.52282        42.35820        -0.79370
C         42.79258        44.51982        -0.76614
C         41.52445        43.80623        -0.67655
C         42.81392        45.95380        -0.51580
C         41.62643        46.64298        -0.26207
C         42.88057        48.69163         0.26780
C         41.64725        48.00598         0.14444
C         42.88145        50.08017         0.62541
C         41.69323        50.78655         0.71719
C         42.94591        52.89429         0.37859
C         41.74108        52.26535         1.04254
C         43.70559        21.16539         1.70332
C         45.07711        23.22478         1.24598
C         43.83610        22.52233         1.20111
C         45.13066        24.61386         0.90320
C         43.92547        25.30755         0.58413
C         45.18049        27.39845         0.26580
C         43.96811        26.70126         0.30315
C         45.21247        28.81187        -0.07505
C         44.02329        29.49954        -0.40766
C         45.21185        31.64428        -0.54527
C         44.00518        30.92170        -0.53281
C         45.23998        33.07092        -0.72312
C         44.02300        33.79485        -0.78615
C         45.23089        35.92466        -1.09143
C         44.01716        35.21483        -0.95613
C         45.23182        37.34395        -1.22627
C         44.00122        38.05523        -1.25959
C         45.21897        40.27037        -1.64274
C         43.90739        39.49912        -1.72904
C         45.19056        41.71890        -1.36050
C         43.97959        42.40243        -1.18075
C         45.20267        44.61560        -1.43328
C         43.96499        43.83457        -1.05451
C         45.28510        45.98033        -0.78021
C         44.07275        46.64782        -0.42668
C         45.36262        48.70134         0.06752
C         44.10448        48.00614        -0.02165
C         45.41435        50.05707         0.48544
C         44.17692        50.81456         0.90857
C         44.08979        52.20578         0.29700
C         47.49507        23.26635         1.60804
C         46.30329        22.58267         1.59986
C         47.57170        24.65216         1.27312
C         46.36818        25.32791         0.92146
C         47.62507        27.44188         0.61946
C         46.40231        26.72133         0.58670
C         47.64906        28.84517         0.28924
C         46.45139        29.50247        -0.06607
C         47.72083        31.67154        -0.29781
C         46.50020        30.87908        -0.67594
C         47.71295        33.08150        -0.50479
C         46.49049        33.75070        -0.81358
C         47.72633        35.94608        -0.78719
C         46.52806        35.17750        -1.28863
C         47.69193        37.36771        -0.85961
C         46.48754        38.04817        -1.19632
C         47.68959        40.25646        -0.94205
C         46.51237        39.50379        -1.39694
C         47.66792        41.68898        -1.06452
C         46.45089        42.41820        -1.28587
C         47.70917        44.53347        -1.28361
C         46.48000        43.82952        -1.27625
C         47.75015        45.96470        -1.04869
C         46.51323        46.64508        -0.69290
C         47.82509        48.67765        -0.10054
C         46.57124        48.01090        -0.24304
C         47.83875        50.01315         0.32540
C         46.65056        50.68801         0.61607
C         50.03807        24.73663         1.61852
C         48.81093        25.37580         1.28590
C         50.06932        27.49449         0.99858
C         48.83623        26.76821         0.96643
C         50.08700        28.90110         0.69321
C         48.88636        29.57109         0.32994
C         50.13300        31.72065         0.16092
C         48.90383        30.99087         0.06025
C         50.14317        33.13320        -0.07205
C         48.93296        33.82105        -0.36216
C         50.11920        36.00137        -0.20667
C         48.92204        35.26639        -0.45783
C         50.09943        37.43334        -0.23734
C         48.88629        38.11801        -0.57121
C         50.04460        40.28144        -0.15703
C         48.83751        39.54587        -0.55602
C         50.09825        41.77659        -0.49349
C         48.88161        42.41401        -1.01112
C         50.20713        44.45512        -1.54820
C         48.92194        43.78892        -1.28012
C         50.21895        45.97385        -1.38106
C         48.97234        46.63272        -0.94341
C         50.31727        48.51815        -0.16671
C         49.06418        47.96524        -0.40494
C         51.22135        25.43304         1.64508
C         52.51655        27.54945         1.38971
C         51.27463        26.82453         1.34443
C         52.52746        28.94526         1.10132
C         51.31579        29.62384         0.76139
C         52.57047        31.74892         0.53505
C         51.33934        31.03242         0.49385
C         52.58118        33.13802         0.22433
C         51.38677        33.85007        -0.02000
C         52.55948        36.02492         0.12966
C         51.37985        35.30218        -0.05628
C         52.50826        37.46142         0.57070
C         51.29842        38.17148         0.02513
C         52.52642        40.32856         0.09353
C         51.32086        39.57229        -0.02362
C         52.54277        41.73164        -0.22787
C         51.39559        42.39438        -0.68063
C         52.71230        44.47206        -1.09925
C         51.51917        43.63816        -1.52583
C         52.75349        45.89847        -1.62715
C         51.51440        46.63229        -1.13865
C         51.52857        47.84474        -0.50522
C         54.92459        27.59465         1.78569
C         53.74035        26.90077         1.72653
C         54.96299        28.98938         1.50603
C         53.76077        29.67087         1.15580
C         55.03877        31.76539         0.93647
C         53.79744        31.06732         0.86291
C         55.09413        33.17772         0.62374
C         53.87509        33.81862         0.11435
C         55.07879        36.09141         0.45494
C         53.86042        35.37542         0.04774
C         55.03495        37.54759         0.48523
C         53.80403        38.22660         0.39014
C         55.00483        40.38710         0.27904
C         53.78073        39.64500         0.27641
C         54.98594        41.82300         0.11117
C         53.78139        42.46840        -0.16419
C         54.89674        44.73536         0.11281
C         53.75378        43.90509        -0.43133
C         55.01266        46.07894        -0.55514
C         54.03921        46.61019        -1.29853
C         56.18269        29.70741         1.57303
C         56.21408        31.05897         1.30041
C         56.23611        33.94869         0.79210
C         56.22811        35.36337         0.70427
C         56.23684        38.30182         0.52657
C         56.22007        39.67873         0.44037
C         56.21163        42.61590         0.13308
C         56.19367        43.96335         0.08516
O         46.09166        39.93309        -2.77465
O         54.04492        34.54136        -1.14155
O         29.65780        29.37165        -2.60794
O         32.57447        43.88985         2.72601
O         30.22691        32.82385        -2.17295
O         50.10327        45.33644        -2.71742
O         29.31253        38.41707         2.55941
O         39.77269        24.66486        -1.60655
O         36.18293        43.27099        -1.20962
O         49.85402        41.28946         0.88674
O         45.05737        44.87743        -2.87697
H         45.88304        45.31058        -3.18195
O         29.21476        34.74100         2.09889
H         29.33278        35.58193         2.59149
O         52.68480        45.83248        -3.08405
H         51.72498        45.82325        -3.33243
O         41.78073        20.47977        -0.69988
H         41.12536        20.89259        -1.30249
O         39.83366        46.13191         1.83650
H         39.18085        46.36520         2.52916
O         32.56220        28.65164         0.77881
H         32.67266        29.53507         1.18739
O         33.79860        35.60174        -2.23472
H         32.97863        35.12491        -2.48785
O         51.76925        43.18352        -2.88937
H         52.24881        43.91139        -3.35076
O         35.16107        24.74334         1.63533
H         35.94960        24.30887         2.02392
O         39.00603        34.60286        -2.47577
O         27.20210        33.13103         1.43690
H         27.67656        33.81761         1.96575
O         46.70338        35.08687        -2.76536
H         46.70710        36.00557        -3.11077
O         33.14065        27.56871        -2.66896
H         33.23185        26.68699        -3.08693
O         42.68697        33.27866         1.08731
H         41.87584        32.82456         1.40171
O         32.02955        37.65302         2.51062
H         31.22541        37.99879         2.96950
O         46.64407        30.63126        -2.14026
H         47.50938        30.18749        -2.27313
O         42.43895        27.99834         1.57374
H         42.46269        27.23957         2.19404
O         42.90421        28.20462        -2.04916
H         43.02434        28.97472        -2.64313
O         36.70443        29.38711        -2.64099
H         35.85911        29.70248        -3.02777
O         38.63002        44.01043        -2.13467
H         37.68802        43.70347        -2.20862
O         38.14553        36.97957         1.33101
H         38.13055        37.83654         1.80947
O         36.07010        44.05775         2.37370
H         35.33998        44.22912         3.00725
O         43.59160        39.37639        -3.15490
H         44.45740        39.35964        -3.62758
O         41.94258        52.40142         2.49906
H         41.17201        51.98190         2.93764
O         38.89956        29.67604         1.24908
H         39.80385        29.82984         1.59870
O         39.82444        46.46202        -1.81659
H         39.33823        45.71349        -2.24592
O         54.59822        44.99621         1.52364
H         54.55378        44.12807         1.97728
O         52.29615        37.40648         2.04165
H         52.15055        38.32856         2.34510
O         44.29690        50.97959         2.35025
H         43.53073        51.53770         2.64213
H         27.00249        26.82412        -1.51610
H         25.99690        28.65502         0.04348
H         26.06579        31.03500         0.79510
H         27.69915        33.49096        -1.93075
H         26.30043        35.61419        -1.03141
H         25.82941        37.51870         0.61481
H         25.85419        39.91334         1.10272
H         25.85580        41.77776         1.45184
H         25.88620        44.23212         1.54543
H         27.14822        46.35981         1.60495
H         29.06638        25.67574        -1.83517
H         29.27288        47.58278         1.59262
H         32.68928        23.55740        -0.10109
H         30.62948        24.71315        -0.73314
H         32.97162        49.74404         1.21168
H         30.90518        48.51846         1.47853
H         34.36751        22.52061        -0.13731
H         34.61077        50.69295         1.01812
H         36.46996        21.32371        -0.15308
H         36.69453        51.91071         0.81534
H         40.06424        19.32715         1.36011
H         38.00159        20.54077         0.89201
H         40.45636        54.06518         0.70163
H         38.34961        52.86919         0.49079
H         42.50267        19.42402         1.95619
H         42.86161        53.91734        -0.01882
H         44.53595        20.73896         2.28477
H         44.98319        52.65072        -0.16744
H         48.40747        22.71865         1.87874
H         46.30517        21.51396         1.85303
H         48.78949        50.55037         0.44083
H         46.69545        51.72642         0.97245
H         50.05342        23.66614         1.86068
H         50.40434        49.51178         0.29162
H         52.13815        24.89110         1.90948
H         52.48573        48.33873        -0.28490
H         55.85801        27.07756         2.05049
H         53.75104        25.82584         1.94734
H         55.94059        46.64494        -0.37659
H         54.18395        47.59324        -1.77282
H         57.10566        29.17472         1.84310
H         57.17515        31.58685         1.35309
H         57.17588        33.47626         1.10797
H         57.16359        35.88307         0.95265
H         57.20405        37.78857         0.60627
H         57.17580        40.21788         0.46782
H         57.18004        42.09838         0.17827
H         57.13662        44.52985         0.11864
