         420
 CSIRO Nanostructure Databank - Neutral Graphene Oxide Data Set
C         27.99912        27.46675         0.39633
C         27.98378        28.83903        -0.00154
C         26.78516        29.55999        -0.22932
C         28.03613        31.58383        -0.76153
C         26.81424        30.88551        -0.64644
C         28.13373        32.95699        -1.27991
C         27.14102        33.47019        -2.13427
C         28.48266        35.45412        -2.44551
C         27.35298        34.69170        -2.76489
C         28.48986        37.76506        -2.48444
C         27.37028        38.51502        -2.85311
C         28.14420        40.34449        -1.47895
C         27.15720        39.77336        -2.29535
C         28.02070        41.71955        -1.00573
C         26.78290        42.43092        -1.06330
C         27.83058        44.50765        -0.32832
C         26.70234        43.78525        -0.74768
C         27.82872        45.91284        -0.12849
C         30.44217        27.42315         0.27357
C         29.18778        26.79489         0.55366
C         30.46275        28.79762        -0.07617
C         29.22896        29.50782        -0.17377
C         30.47986        31.60888        -0.42459
C         29.23640        30.89939        -0.46414
C         30.38620        33.09103        -0.20303
C         29.28879        33.72924        -1.01125
C         30.54986        35.91664        -0.99578
C         29.43477        35.06108        -1.48023
C         30.53436        37.39054        -0.99285
C         29.44137        38.20432        -1.53255
C         30.44076        40.25849        -0.59205
C         29.31574        39.58431        -1.15630
C         30.40597        41.68266        -0.42695
C         29.16338        42.37333        -0.53205
C         30.32933        44.57446        -0.14899
C         29.07968        43.75971         0.04278
C         30.29007        45.94755        -0.02815
C         29.00538        46.60461         0.07990
C         33.01376        24.64579         0.51811
C         31.81902        25.33687         0.63967
C         32.81500        27.34435        -0.35028
C         31.67843        26.69354         0.22449
C         32.89683        28.77163        -0.50718
C         31.70337        29.48604        -0.34161
C         32.94181        31.65942        -0.27297
C         31.68598        30.93436        -0.40034
C         32.88989        33.10339        -0.13862
C         31.69694        33.79432        -0.36260
C         32.77178        35.91412         0.20761
C         31.65025        35.22599        -0.45806
C         32.69037        37.40604         0.32531
C         31.59124        38.10259        -0.37612
C         32.81215        40.26616         0.06181
C         31.62320        39.53805        -0.30900
C         32.80946        41.69881         0.04252
C         31.60039        42.39370        -0.18474
C         32.82415        44.59135         0.07169
C         31.61872        43.87310        -0.46832
C         32.78947        46.01493         0.10346
C         31.54310        46.71349        -0.02630
C         32.76399        48.82663         0.01206
C         31.56481        48.11095        -0.06762
C         35.44229        23.16176        -0.35162
C         35.41801        24.56772        -0.35842
C         34.09926        25.21212        -0.21087
C         35.71286        27.55726        -0.84396
C         33.86616        26.47758        -0.73637
C         35.49318        28.84452        -0.44593
C         34.19459        29.55199        -0.83782
C         35.35670        31.65934         0.15189
C         34.15184        30.97922        -0.29415
C         35.31038        33.10457         0.37467
C         34.11395        33.81974         0.13148
C         35.25738        35.92329         0.63221
C         34.07578        35.22257         0.33966
C         35.24238        37.38299         0.85734
C         33.94760        38.14710         0.67036
C         35.23786        40.26844         0.54108
C         34.01904        39.58393         0.37022
C         35.20433        41.69972         0.54430
C         34.02494        42.41925         0.31913
C         35.20314        44.63365         0.56782
C         34.01084        43.88750         0.33685
C         35.23049        46.04033         0.44653
C         34.00582        46.75015         0.24801
C         35.26019        48.90638         0.22885
C         33.99865        48.17731         0.17520
C         35.31690        50.29885         0.11814
C         37.86635        23.10259        -0.14388
C         36.62803        22.44420        -0.29677
C         37.88185        24.53363        -0.13930
C         36.67192        25.27768        -0.33986
C         37.94851        27.38983         0.05820
C         36.79409        26.71866        -0.38712
C         37.94424        28.82557         0.25499
C         36.75504        29.63588        -0.23257
C         37.67327        31.60713         1.08423
C         36.52961        30.96803         0.40915
C         37.67395        33.09742         1.18883
C         36.47568        33.81958         0.73512
C         37.75189        35.96315         0.86147
C         36.49235        35.23362         0.76376
C         37.74501        37.40110         0.78600
C         36.51610        38.11970         0.75234
C         37.74350        40.21429         0.75274
C         36.49285        39.52715         0.69838
C         37.71807        41.68958         0.61987
C         36.44360        42.41802         0.90353
C         37.71524        44.66385         0.78451
C         36.44728        43.92396         0.89710
C         37.72051        46.04770         0.63260
C         36.47889        46.77224         0.49877
C         37.75184        48.89527         0.28968
C         36.49338        48.17637         0.35708
C         37.76073        50.34031         0.20778
C         36.53590        50.99936         0.13038
C         40.23788        20.23183         0.44574
C         39.08569        20.93726         0.17883
C         40.33503        23.04516         0.13167
C         39.09073        22.35454         0.04435
C         40.34242        24.49371         0.18450
C         39.11878        25.22306         0.11198
C         40.33019        27.31585         0.68649
C         39.13496        26.63737         0.31538
C         40.32874        28.75982         0.90248
C         39.07050        29.46771         0.73167
C         40.24264        31.68849         1.23411
C         38.99148        30.88645         1.19041
C         40.25849        33.05974         1.13974
C         38.99760        33.83846         1.22212
C         40.23037        35.97681         0.84863
C         38.98300        35.28335         0.92485
C         40.22604        37.38942         0.82568
C         38.98477        38.11004         0.83582
C         40.23876        40.27856         1.22259
C         38.95889        39.53835         0.87327
C         40.27523        41.72954         0.77271
C         38.98783        42.45077         0.63950
C         40.26913        44.64710         0.73986
C         38.95858        43.91038         0.96003
C         40.18337        46.06050         0.42151
C         38.97711        46.76667         0.47662
C         40.24113        48.89651        -0.10343
C         38.95795        48.18615         0.27687
C         40.25008        50.36917         0.20254
C         39.03352        51.07284         0.25883
C         40.29581        53.15433         0.43703
C         39.08572        52.48687         0.39971
C         42.68619        20.21078         0.86854
C         41.49308        20.90151         0.53920
C         42.83648        22.97271         0.28179
C         41.52852        22.30584         0.31757
C         42.83454        24.49896         0.34110
C         41.54299        25.19602         0.44537
C         42.76779        27.23858         1.18261
C         41.52054        26.56914         0.78097
C         42.77462        28.73886         1.34874
C         41.49967        29.46398         1.15593
C         42.78278        31.67756         1.26074
C         41.49446        30.92257         1.60753
C         42.72147        33.10728         0.85482
C         41.50455        33.80956         0.94851
C         42.71281        35.93705         0.65408
C         41.48007        35.23452         0.81417
C         42.73265        37.37590         0.64473
C         41.48363        38.11737         0.78020
C         42.75465        40.23225         0.82097
C         41.48544        39.49820         0.87012
C         42.74554        41.72176         0.67878
C         41.44136        42.42638         0.61107
C         42.68693        44.53091         0.21920
C         41.49043        43.86882         0.43147
C         42.71445        45.99583         0.03557
C         41.43452        46.75983         0.08441
C         42.76088        48.89534         0.26968
C         41.44777        48.20397         0.52186
C         42.76265        50.30190         0.25904
C         41.50248        51.03184         0.27914
C         42.78524        53.12900         0.38288
C         41.52415        52.44830         0.37333
C         43.90537        20.89509         1.02317
C         45.32871        22.96698         1.01001
C         44.02721        22.24396         0.72878
C         45.32037        24.45606         0.74257
C         44.07453        25.19679         0.74268
C         45.31932        27.28623         1.29612
C         44.04732        26.54840         0.95606
C         45.24255        28.76718         0.95628
C         44.06087        29.43823         1.08143
C         45.14829        31.56641         0.19535
C         44.04807        30.92339         1.01257
C         45.17500        33.06800         0.35592
C         43.94820        33.77911         0.55577
C         45.16883        35.90402         0.28376
C         43.93790        35.21021         0.49713
C         45.18435        37.33001         0.32567
C         43.96078        38.06083         0.52244
C         45.17667        40.21782         0.31490
C         43.99997        39.50535         0.50471
C         45.19847        41.64837         0.12393
C         43.89080        42.34971        -0.09817
C         45.13617        44.55005         0.09166
C         43.95166        43.84775         0.10635
C         45.17745        45.99535         0.25710
C         43.98309        46.72106         0.24370
C         45.22007        48.84710         0.36870
C         43.97068        48.15400         0.28299
C         45.23252        50.27420         0.35617
C         44.00895        51.00715         0.28275
C         43.96955        52.44256         0.32272
C         47.65777        23.02322         0.11811
C         46.53029        22.31862         0.36949
C         47.73815        24.45790         0.32327
C         46.51884        25.14134         0.64671
C         47.81896        27.30039         0.99961
C         46.50558        26.64940         0.55693
C         47.71636        28.79009         0.71248
C         46.50276        29.47449         0.67686
C         47.67444        31.61732         0.20963
C         46.48316        30.88942         0.42194
C         47.63732        33.03941        -0.00779
C         46.38670        33.74989         0.12665
C         47.58855        35.88635        -0.22219
C         46.38749        35.18615         0.07755
C         47.55917        37.30967        -0.23352
C         46.40630        38.01865         0.12596
C         47.54809        40.20120        -0.45841
C         46.50047        39.50290         0.41539
C         47.62900        41.67049        -0.14490
C         46.37425        42.36062        -0.06044
C         47.67484        44.52023         0.14819
C         46.40035        43.84888        -0.32381
C         47.67953        45.92499         0.41737
C         46.43317        46.68029         0.43053
C         47.65140        48.81035         0.90553
C         46.42475        48.08563         0.53666
C         47.65521        50.26838         0.72936
C         46.51113        50.94367         0.45746
C         50.07207        24.55686        -0.49536
C         48.91954        25.19815         0.06220
C         50.19235        27.30090         0.12407
C         49.00319        26.61498         0.32667
C         50.27423        28.75603         0.42281
C         48.96757        29.53869         0.63901
C         50.13953        31.62669        -0.07228
C         48.94981        30.95761         0.26421
C         50.10261        33.03820        -0.35102
C         48.85115        33.74120        -0.25941
C         50.03566        35.83906        -0.74295
C         48.82891        35.16560        -0.42590
C         50.01803        37.30251        -0.96619
C         48.75527        38.04649        -0.69328
C         50.06413        40.12638        -0.31315
C         48.86258        39.48980        -0.41039
C         50.07801        41.56231         0.06891
C         48.82688        42.34491        -0.06866
C         50.13714        44.45762         0.22604
C         48.86649        43.78242         0.14750
C         50.14919        45.88620         0.32867
C         48.92176        46.58410         0.55643
C         50.26052        48.70001         0.77577
C         48.97811        48.00642         0.93109
C         51.22411        25.24488        -0.74863
C         52.57530        27.31158        -0.59493
C         51.35225        26.63532        -0.42547
C         52.71394        28.72917        -0.09572
C         51.42598        29.50887        -0.07004
C         52.59965        31.61653        -0.56426
C         51.39476        30.89577        -0.20031
C         52.56220        33.01318        -0.80100
C         51.29839        33.73130        -0.69998
C         52.43313        35.85818        -1.43687
C         51.24452        35.13433        -0.92345
C         52.46342        37.36224        -1.40978
C         51.27695        38.07444        -0.93465
C         52.57574        40.14043        -0.54637
C         51.31955        39.42598        -0.59516
C         52.69242        41.49362         0.15763
C         51.37961        42.27630         0.25455
C         52.57604        44.45665        -0.08044
C         51.36766        43.75654         0.12700
C         52.58386        45.88770        -0.06662
C         51.38271        46.59524         0.22347
C         51.37920        48.02793         0.40885
C         54.94645        27.33233        -1.20426
C         53.75994        26.65862        -1.04340
C         55.01171        28.76507        -1.08261
C         53.85964        29.48009        -0.70642
C         55.03896        31.58819        -1.07348
C         53.83234        30.89480        -0.75977
C         55.01858        33.02490        -1.12942
C         53.77975        33.70321        -1.08082
C         55.03074        35.90676        -1.34698
C         53.76881        35.13510        -1.44926
C         55.04627        37.32650        -1.24914
C         53.79312        38.10643        -1.35638
C         55.03591        40.18677        -0.76133
C         53.77359        39.50045        -0.85884
C         55.03820        41.64160        -0.68496
C         53.84287        42.31841        -0.37217
C         54.98573        44.46273        -0.66277
C         53.80160        43.73258        -0.35759
C         54.96086        45.89265        -0.64065
C         53.81371        46.57468        -0.34064
C         56.19649        29.47187        -1.41369
C         56.21509        30.84954        -1.36855
C         56.22621        33.77479        -1.26122
C         56.22900        35.15431        -1.28627
C         56.22399        38.05304        -0.99357
C         56.22135        39.44395        -0.83703
C         56.20255        42.38910        -1.00330
C         56.17841        43.76831        -0.98071
O         49.86271        29.17080         1.77565
O         43.81296        31.51915         2.32776
O         43.02629        23.80216        -0.93880
O         50.62691        41.80315         1.43414
O         52.96889        35.33418        -2.68480
O         49.12522        37.71092        -2.09110
O         48.25474        48.34506         2.16155
O         36.38233        43.12898         2.17334
O         42.75672        27.85625         2.54004
O         34.43818        37.82245         2.00860
O         42.01701        46.45022        -1.21239
O         38.21945        33.57040         2.44819
O         32.25725        36.56145         1.44026
O         34.76662        26.96017        -1.69130
O         38.08022        30.97446         2.34834
O         43.00711        41.17117         1.99807
O         39.76335        44.30096         2.10153
O         38.32115        42.15802        -0.65411
O         28.69302        36.59591        -3.22082
O         53.05679        37.94084        -2.61434
O         53.08734        41.15964         1.52455
H         52.25002        41.09749         2.04425
O         45.51958        22.82597         2.46614
H         46.29928        23.36833         2.71407
O         28.98173        43.54991         1.51737
H         28.85305        44.43549         1.92117
O         44.77512        31.29573        -1.20348
H         45.48554        31.65556        -1.77596
O         45.48884        27.17017         2.72458
H         44.64000        27.46362         3.13277
O         46.37018        26.98025        -0.85201
H         45.62944        26.45389        -1.22050
O         40.24924        40.35997         2.69139
H         41.12793        40.72970         2.94445
O         46.96232        39.63280         1.78966
H         46.23477        39.35572         2.38529
O         34.25028        29.70284        -2.29910
H         34.26908        28.78797        -2.66454
O         37.15319        30.01615        -1.62260
H         36.31669        30.20604        -2.11253
O         53.07105        28.58151         1.33854
H         53.00994        29.47038         1.74935
O         43.54209        42.12337        -1.50656
H         44.37236        42.00625        -2.01576
O         46.43970        44.00611        -1.79371
H         45.52637        43.88722        -2.13249
O         48.02243        27.12088         2.41717
H         48.75934        27.72411         2.67286
O         41.23294        48.23023         1.95808
H         42.03805        47.89715         2.40606
O         30.04001        33.24474         1.22173
H         30.16599        34.18956         1.45633
O         31.75220        43.96463        -1.94476
H         32.63650        43.61073        -2.17998
O         47.08544        40.10138        -1.84195
H         47.65355        39.45860        -2.32066
O         40.37820        48.76643        -1.54634
H         39.60960        49.20567        -1.96595
O         41.42705        30.82366         3.05498
H         42.35614        30.84260         3.38619
H         27.04462        26.94833         0.56846
H         25.82001        29.04842        -0.10180
H         25.86723        31.40414        -0.85362
H         26.24683        32.87734        -2.36923
H         26.64800        35.06774        -3.51739
H         26.67230        38.10399        -3.59358
H         26.26238        40.34365        -2.57665
H         25.87359        41.91353        -1.39816
H         25.74574        44.31356        -0.87887
H         26.87747        46.46227        -0.19620
H         29.17175        25.73639         0.84861
H         28.96441        47.69258         0.22417
H         33.10718        23.64066         0.95262
H         30.97211        24.84079         1.13327
H         32.71782        49.92233        -0.04676
H         30.62910        48.67553        -0.17900
H         34.49136        22.61318        -0.40085
H         34.39189        50.88356         0.02454
H         36.57825        21.34853        -0.33090
H         36.50016        52.09507         0.05983
H         40.19953        19.14270         0.58942
H         38.13974        20.38426         0.11070
H         40.31403        54.25054         0.52349
H         38.15633        53.06811         0.47162
H         42.64190        19.12946         1.05985
H         42.79044        54.22768         0.43520
H         44.78563        20.34000         1.37747
H         44.90839        53.01246         0.32890
H         48.53296        22.48597        -0.27239
H         46.51413        21.23095         0.20592
H         48.59287        50.82177         0.87563
H         46.55625        52.03644         0.35687
H         50.03638        23.48904        -0.74604
H         50.31628        49.77284         1.00469
H         52.07184        24.70627        -1.19080
H         52.32062        48.58576         0.31964
H         55.84832        26.79008        -1.52262
H         53.73954        25.58285        -1.26453
H         55.88607        46.44053        -0.87085
H         53.83713        47.67214        -0.34038
H         57.09945        28.91174        -1.69512
H         57.14564        31.37541        -1.61842
H         57.19128        33.25258        -1.26595
H         57.19785        35.67066        -1.29446
H         57.18986        37.53407        -0.93618
H         57.18848        39.94939        -0.71108
H         57.13225        41.87025        -1.27313
H         57.08528        44.34268        -1.21842
