         210
 CSIRO Nanostructure Databank - Neutral Graphene Oxide Data Set
C         30.48304        31.57022         0.52814
C         30.59940        32.82817         0.62116
C         30.50878        35.96306         0.52132
C         30.50147        37.20715         0.40571
C         30.49770        40.32579         0.09884
C         30.42111        41.57499        -0.04137
C         32.94955        28.87520        -0.23469
C         31.83337        29.42048        -0.03493
C         32.91683        31.48881         0.41063
C         31.66504        30.78504         0.29519
C         32.92265        32.88451         1.04903
C         31.65571        33.72657         0.73448
C         32.86236        35.91596         0.50409
C         31.66208        35.12892         0.61798
C         32.85772        37.32273         0.28532
C         31.62203        38.06225         0.26025
C         32.83219        40.20800        -0.07683
C         31.61145        39.46720         0.11090
C         32.81641        41.62553        -0.31280
C         31.55614        42.36425        -0.29887
C         32.76208        44.30957        -1.02523
C         31.74988        43.74584        -0.56801
C         35.65723        27.41968        -0.81933
C         35.48472        28.79876        -0.45928
C         34.23810        29.44323        -0.18357
C         35.39966        31.60466         0.13624
C         34.16203        30.84666         0.15022
C         35.41245        33.00384         0.36452
C         34.19350        33.70807         0.80201
C         35.37727        35.91903         0.15882
C         34.15988        35.21804         0.62502
C         35.33683        37.35971         0.01028
C         34.08990        38.06165         0.09429
C         35.30242        40.20921        -0.18826
C         34.07347        39.48143        -0.07345
C         35.30096        41.62437        -0.43068
C         34.05969        42.28803        -0.61084
C         35.40057        44.45635        -1.06242
C         34.07305        43.68041        -1.12218
C         35.46964        45.90859        -0.88797
C         38.09759        27.49544        -1.12883
C         36.85923        26.97257        -0.91592
C         37.99038        29.02956        -1.05127
C         36.67742        29.56887        -0.50723
C         37.85701        31.68390        -0.09428
C         36.62822        30.95094        -0.19061
C         37.84597        33.07618         0.07656
C         36.59840        33.76166         0.19680
C         37.83332        35.89059        -0.22641
C         36.56515        35.19981         0.08596
C         37.82895        37.40089        -0.28094
C         36.54022        38.09432        -0.10997
C         37.78997        40.22935        -0.02660
C         36.54356        39.51115        -0.11483
C         37.78070        41.65214        -0.07238
C         36.55984        42.34919        -0.38348
C         37.76093        44.50556        -0.14934
C         36.59119        43.76015        -0.51540
C         37.75152        45.93675        -0.04275
C         36.44917        46.43598        -0.33069
C         40.50067        24.76132        -1.09102
C         39.55978        25.46638        -1.48926
C         40.46696        27.42538        -0.40845
C         39.44389        26.95238        -1.50000
C         40.38559        28.83883        -0.06609
C         39.18921        29.62035        -0.34897
C         40.23275        31.66645         0.62300
C         39.10004        30.94853         0.00449
C         40.30311        33.12010         0.45073
C         39.09647        33.81439         0.18402
C         40.31534        35.94317         0.23699
C         39.10391        35.21196         0.08735
C         40.30489        37.37991         0.23237
C         39.07745        38.12106         0.04692
C         40.22697        40.25303         0.66905
C         39.01652        39.50744         0.17017
C         40.24812        41.71498         0.28172
C         39.01224        42.39200         0.08803
C         40.20683        44.56307         0.25076
C         38.99772        43.82049         0.07376
C         40.19985        45.99281         0.33295
C         38.92126        46.66004         0.24461
C         40.10397        48.73395         0.61309
C         39.06884        48.05660         0.40634
C         42.83367        24.60480         0.05350
C         41.61095        25.18875        -0.30599
C         42.55558        27.18824         0.96176
C         41.48919        26.59830         0.09076
C         42.59236        28.72419         1.06950
C         41.47922        29.47814         0.51172
C         42.78995        31.64394         0.94360
C         41.50439        30.90927         0.86926
C         42.76936        33.05096         0.81773
C         41.53278        33.79122         0.58315
C         42.76952        35.93038         0.55422
C         41.53833        35.21951         0.45534
C         42.75041        37.35210         0.52059
C         41.53649        38.07931         0.41605
C         42.70396        40.26711         0.40537
C         41.53326        39.53332         0.43394
C         42.72629        41.71303         0.32914
C         41.46084        42.42836         0.29375
C         42.66902        44.59347         0.30151
C         41.45251        43.86362         0.28425
C         42.67789        46.00607         0.43957
C         41.42542        46.72815         0.49833
C         42.68988        48.74852         0.82581
C         41.40428        48.17799         0.66519
C         43.76827        25.18142         0.68361
C         44.91994        27.18590         1.79198
C         43.86281        26.48048         1.19658
C         44.84562        28.62659         1.90348
C         43.85619        29.42776         1.34026
C         45.25940        31.52787         1.00905
C         44.00944        30.86929         1.12374
C         45.30257        33.05112         1.14536
C         43.99831        33.79765         0.87838
C         45.27718        35.94793         0.77645
C         43.99570        35.18672         0.74994
C         45.29417        37.38616         0.45417
C         44.01548        38.09883         0.67310
C         45.24114        40.29570         0.16254
C         44.00532        39.58999         0.53818
C         45.21919        41.68430         0.08797
C         43.94275        42.38438         0.20837
C         45.24800        44.58733         0.09728
C         43.92009        43.85033         0.04364
C         45.18904        46.02468         0.50182
C         43.95699        46.69634         0.56305
C         43.74696        48.07448         0.78739
C         47.39014        27.33171         1.71727
C         46.29128        26.77805         1.89539
C         47.75795        28.56042         1.05737
C         46.76309        29.55620         1.31280
C         47.64108        31.57287         0.19949
C         46.53008        30.86374         0.80267
C         47.80274        33.03946         0.50454
C         46.42918        33.70344         0.29151
C         47.73627        35.90043         0.03306
C         46.55008        35.19080         0.55774
C         47.71517        37.32537        -0.01103
C         46.45618        38.04349         0.14813
C         47.75087        40.20086        -0.10044
C         46.43582        39.49209        -0.30376
C         47.75734        41.69143        -0.34195
C         46.47329        42.41787         0.02278
C         47.76515        44.47165         0.46751
C         46.50800        43.79767         0.21104
C         47.57404        45.83634         0.73908
C         46.48703        46.48201         0.74918
C         50.12716        28.62027        -0.02642
C         48.72610        28.74439         0.04020
C         49.90815        31.51771        -0.80978
C         48.62887        30.92168        -0.50649
C         49.92224        32.97916        -0.86972
C         48.88190        33.71211        -0.33638
C         50.06734        35.88274        -0.71044
C         48.86860        35.16921        -0.37031
C         50.11545        37.30795        -0.51425
C         48.91901        38.03501        -0.22707
C         50.21637        40.19986        -0.16037
C         48.93400        39.49653        -0.16235
C         50.25551        41.61764         0.11310
C         49.02730        42.35150         0.17005
C         50.28676        44.23448         0.74626
C         48.98902        43.73358         0.48422
C         50.94831        29.36521        -0.63655
C         52.21692        31.57933        -1.24964
C         51.10403        30.73940        -0.91050
C         52.28127        32.81549        -1.33837
C         51.07888        33.70818        -1.58562
C         52.33392        35.95245        -1.26335
C         51.21246        35.13330        -1.13831
C         52.40413        37.19222        -1.00668
C         51.35216        38.03721        -0.64278
C         52.55287        40.24958        -0.23847
C         51.39820        39.44460        -0.37003
C         52.65322        41.45864         0.08614
C         51.53753        42.29594         0.31580
C         51.39953        43.65752         0.67263
O         44.09940        38.93628         1.89013
O         46.17868        35.62274         1.91045
O         34.87804        43.92330        -2.28717
O         44.58985        44.32634        -1.18852
O         34.41088        34.59522         1.95654
O         42.10854        27.84952         2.16786
O         37.87136        36.59436        -1.51919
O         48.28968        29.63217        -0.98679
O         40.57131        31.21427         1.98204
O         45.96021        29.27519         2.45084
O         32.87085        32.61720         2.46674
H         33.26700        33.39709         2.92181
O         46.26654        39.42314        -1.76925
H         46.65892        40.25203        -2.14159
O         50.78451        33.70945        -2.98608
H         51.47175        34.23310        -3.44881
O         40.06365        40.26559         2.13995
H         40.91358        40.56182         2.53110
O         38.06762        29.49499        -2.45500
H         37.20333        29.30124        -2.87879
O         45.61730        33.19845         2.55973
H         45.63767        34.17071         2.75989
O         46.04227        33.52609        -1.08794
H         46.78805        33.79841        -1.66378
O         48.21166        33.19238         1.87729
H         47.41941        33.00628         2.44587
O         39.86544        27.48094        -2.75381
H         39.31390        28.27497        -2.96755
O         47.80981        41.80071        -1.82906
H         47.68304        42.74627        -2.06348
