         429
 CSIRO Nanostructure Databank - Neutral Graphene Oxide Data Set
C          1.32461         1.69085        -0.63957
C          1.33345         2.81972        -1.47837
C          2.49020         1.33384         0.00686
C          2.47819         3.60864        -1.56391
C          1.25570         6.58704        -1.90330
C          1.23483         7.90750        -1.47891
C          2.46146         5.87690        -1.88842
C          2.45425         8.57296        -1.21890
C          1.27395        10.71392        -0.70463
C          1.27203        12.08504        -0.49713
C          2.46456        10.00928        -0.96657
C          2.46328        12.84592        -0.61029
C          1.34453        14.99265        -0.02890
C          1.30981        16.36090         0.08197
C          2.46306        14.27085        -0.52296
C          2.45210        17.18779        -0.33030
C          2.61484        18.53960         0.23806
C          3.67760         2.11088        -0.13364
C          3.66934         3.36660        -0.83542
C          4.89547         1.55329         0.30114
C          4.85934         4.22096        -0.83455
C          3.67742         6.42643        -1.41425
C          3.66661         7.84195        -1.24608
C          4.88345         5.63802        -1.12246
C          4.96081         8.57897        -1.44270
C          3.70356        10.72861        -0.94964
C          3.69845        12.14657        -0.82348
C          4.94048        10.02869        -1.04015
C          4.94417        12.86851        -0.86150
C          3.64200        14.98601        -1.15284
C          3.67298        16.48611        -0.87113
C          4.95734        14.28453        -0.89750
C          4.98671        17.15888        -0.73394
C          3.78575        19.20437         0.10718
C          4.99482        18.57387        -0.39174
C          6.10075         2.21188         0.03040
C          6.07641         3.57934        -0.42646
C          7.32920         1.52010         0.22627
C          7.32365         4.27698        -0.43129
C          6.10748         6.38480        -0.90825
C          6.16161         7.80776        -0.97531
C          7.33229         5.68876        -0.62173
C          7.37237         8.53479        -0.79073
C          6.15951        10.71443        -0.91181
C          6.17290        12.15093        -0.85092
C          7.39348         9.97791        -0.83909
C          7.40597        12.86764        -0.86741
C          6.17910        14.99514        -0.95633
C          6.16257        16.45419        -0.89949
C          7.40959        14.28012        -0.95573
C          7.44280        17.22104        -1.14026
C          6.19180        19.26499        -0.32565
C          7.44120        18.62238        -0.57362
C          8.55482         2.15287         0.03584
C          8.54616         3.57286        -0.21331
C          9.79654         1.44294         0.12676
C          9.77473         4.27789        -0.19165
C          8.55940         6.40002        -0.47662
C          8.58863         7.83265        -0.55839
C          9.76046         5.67910        -0.25801
C          9.82664         8.54855        -0.44645
C          8.61636        10.69427        -0.70763
C          8.64203        12.12404        -0.74964
C          9.84342         9.97598        -0.52283
C          9.86653        12.82113        -0.55874
C          8.72702        14.99652        -1.20607
C          8.70180        16.45786        -0.81571
C          9.91696        14.25208        -0.63885
C          9.85935        17.12403        -0.55965
C          8.63233        19.27259        -0.34188
C          9.88763        18.57432        -0.37252
C         11.02108         2.08654        -0.02562
C         11.03807         3.54091        -0.15649
C         12.26727         1.38759        -0.00447
C         12.22967         4.19508        -0.33911
C         11.03631         6.39662         0.06629
C         11.04906         7.85767        -0.27094
C         12.23694         5.66177        -0.47831
C         12.27750         8.54312        -0.18387
C         11.06423        10.67774        -0.32676
C         11.07356        12.10245        -0.30563
C         12.29286         9.97239        -0.14026
C         12.28614        12.79461        -0.02252
C         11.09152        14.92848        -0.35762
C         11.18293        16.40021        -0.68478
C         12.28393        14.21495         0.01808
C         12.28679        17.10925         0.04497
C         11.08227        19.23126        -0.15167
C         12.30081        18.50561         0.11881
C         13.49132         2.02384        -0.24644
C         13.48817         3.46112        -0.71634
C         14.72459         1.35425        -0.14912
C         14.76462         4.20233        -0.37040
C         13.54008         6.40160        -0.45183
C         13.52092         7.83289        -0.09573
C         14.78735         5.64083        -0.28337
C         14.70863         8.49046         0.22191
C         13.50399        10.66014         0.12772
C         13.50384        12.08468         0.23180
C         14.71910         9.93158         0.36848
C         14.69396        12.78013         0.58520
C         13.45496        14.89201         0.44663
C         13.35819        16.34398         0.66264
C         14.65141        14.19937         0.74613
C         14.63097        17.09640         1.06452
C         13.51227        19.20238         0.42370
C         14.69912        18.53039         0.72595
C         15.96567         2.04517        -0.24698
C         15.94676         3.48572        -0.30705
C         17.20395         1.36912        -0.15613
C         17.23236         4.26322        -0.43499
C         15.94052         6.33902         0.07146
C         15.94107         7.74443         0.31915
C         17.18902         5.54954         0.38181
C         17.16167         8.41895         0.60663
C         15.90163        10.61028         0.68680
C         15.92315        12.03721         0.79132
C         17.09623         9.82751         1.17442
C         17.12439        12.70468         1.10998
C         15.84608        14.92289         1.16631
C         15.86453        16.30291         1.22155
C         17.06584        14.12934         1.47986
C         17.08726        17.08733         1.49730
C         15.96634        19.16728         0.68595
C         17.15074        18.49103         1.01148
C         18.45069         2.04478        -0.09162
C         18.48018         3.47728        -0.13349
C         19.67361         1.32796         0.06720
C         19.67035         4.19559        -0.02864
C         18.45583         6.35519         0.18893
C         18.39123         7.76332         0.42553
C         19.64677         5.65216        -0.01672
C         19.63798         8.56658         0.49655
C         18.39327        10.60703         1.14701
C         18.38855        11.99621         1.21858
C         19.63830         9.80018         1.40562
C         19.64906        12.73114         1.32884
C         18.38100        14.84620         1.74463
C         18.38474        16.34537         1.72225
C         19.65574        14.13765         1.46247
C         19.64745        17.04112         1.43638
C         18.40783        19.11400         0.89602
C         19.63291        18.43500         1.09851
C         20.90720         1.98677         0.15252
C         20.91414         3.44579         0.08980
C         22.13880         1.27915         0.33459
C         22.11399         4.10742         0.17247
C         20.92304         6.39773        -0.06940
C         20.93634         7.87226         0.27485
C         22.16541         5.57505         0.12617
C         22.10022         8.42792         1.01537
C         20.93921        10.58170         1.31829
C         20.91229        12.00088         1.31744
C         22.16187         9.86597         1.34010
C         22.14629        12.71040         1.33008
C         20.85892        14.90101         1.44047
C         20.85394        16.31744         1.48810
C         22.13971        14.20039         1.04133
C         22.08205        17.17013         1.78810
C         20.86619        19.08750         0.78974
C         22.09555        18.47318         1.02299
C         23.38636         1.92228         0.40974
C         23.39284         3.38665         0.20817
C         24.63880         1.27631         0.56605
C         24.64736         4.16586         0.45321
C         23.31618         6.22653         0.78682
C         23.06597         7.52470         1.36994
C         24.54401         5.60596         0.80887
C         24.91988         8.53133         1.54912
C         23.40757        10.58870         1.47597
C         23.36815        12.01712         1.44516
C         24.72668         9.95227         1.37119
C         24.64509        12.78408         1.52855
C         23.38308        14.92926         1.52047
C         23.39370        16.39802         1.74659
C         24.67454        14.23943         1.28052
C         24.71970        17.16537         1.62910
C         23.31700        19.10887         0.73055
C         24.57781        18.53104         0.97495
C         25.86496         1.97637         0.74350
C         25.81086         3.44734         1.11116
C         27.10863         1.34073         0.75335
C         27.12294         4.19606         0.95309
C         25.84860         6.33948         0.60970
C         25.91656         7.79087         0.98857
C         27.12542         5.59858         0.90070
C         27.05956         8.47067         0.36940
C         25.87190        10.64520         1.00261
C         25.95660        12.07056         1.25493
C         27.05544         9.97544         0.44900
C         27.15202        12.80382         0.81584
C         25.84073        14.92344         1.06481
C         25.77290        16.41279         0.77275
C         27.10345        14.22825         0.84345
C         27.10291        17.15024         0.88359
C         25.75302        19.18024         0.59569
C         27.05855        18.58569         0.70283
C         28.35223         2.05004         0.89838
C         28.33423         3.47709         0.96861
C         29.59499         1.35993         0.88595
C         29.61040         4.23691         1.22042
C         28.34445         6.35438         0.72158
C         28.34066         7.75005         0.41817
C         29.58646         5.67557         0.75772
C         29.53759         8.48528         0.25425
C         28.34946        10.66985         0.42488
C         28.34209        12.09720         0.52134
C         29.52970         9.94322         0.21912
C         29.57178        12.79616         0.26835
C         28.27038        14.96111         0.61358
C         28.28394        16.38852         0.81124
C         29.51102        14.27468         0.19925
C         29.56481        16.98491         1.01862
C         28.17907        19.40531         0.38833
C         29.51937        19.05156         0.70360
C         30.84785         2.02512         0.85987
C         30.85719         3.48351         0.84192
C         32.07129         1.33700         0.69720
C         32.01919         4.17303         0.64906
C         30.76170         6.36749         0.43754
C         30.77162         7.77342         0.21254
C         32.00747         5.59883         0.26383
C         32.01471         8.49908         0.04032
C         30.78027        10.65768         0.09610
C         30.76433        12.10631         0.09544
C         31.97879         9.93384        -0.02341
C         32.00996        12.86431        -0.32777
C         30.80471        15.04441         0.13559
C         30.80023        16.44096         0.63307
C         32.08182        14.30731         0.14663
C         31.98451        17.20085         0.64842
C         30.74505        19.37960         0.13113
C         31.97405        18.63403         0.37204
C         33.32457         2.01153         0.65494
C         33.31441         3.48499         0.79757
C         34.54924         1.37293         0.48519
C         34.60582         4.26074         0.65186
C         33.29512         6.34673         0.04863
C         33.25368         7.81706         0.00762
C         34.58535         5.67621         0.27000
C         34.50348         8.49210        -0.25765
C         33.29754        10.63627         0.12492
C         33.29718        12.12507        -0.09614
C         34.47450         9.88671        -0.43830
C         34.47153        12.80726        -0.00891
C         33.24633        14.97412         0.37156
C         33.26019        16.44288         0.65207
C         34.53073        14.18532         0.64566
C         34.55767        17.17439         0.44276
C         33.17558        19.26463         0.05446
C         34.55205        18.69773         0.28269
C         35.81322         2.06979         0.42203
C         35.86214         3.51619         0.47092
C         36.98215         1.35530         0.15850
C         37.04586         4.24003         0.28169
C         35.77897         6.35794        -0.01559
C         35.71906         7.74038        -0.37549
C         37.04732         5.65442         0.01943
C         36.95394         8.39389        -0.81466
C         35.66409        10.64462        -0.80332
C         35.70673        12.13070        -0.44629
C         36.95632         9.91613        -0.99653
C         37.02240        12.78001        -0.35396
C         35.88301        14.98826         0.41116
C         35.61623        16.35124        -0.29242
C         37.01418        14.23212        -0.29163
C         36.93265        17.14220        -0.48191
C         35.52947        19.19894        -0.75159
C         36.69099        18.52043        -1.06636
C         38.29152         1.98355         0.29032
C         38.32570         3.52649         0.41023
C         39.48873         1.32133        -0.27013
C         39.59388         4.24936         0.09362
C         38.26528         6.35217        -0.26290
C         38.24765         7.73419        -0.60787
C         39.52549         5.66091        -0.30798
C         39.44203         8.46319        -0.84985
C         38.21628        10.63757        -0.83841
C         38.18219        12.04984        -0.63768
C         39.44463         9.91055        -0.94351
C         39.44702        12.80898        -0.77229
C         38.07273        14.92842        -0.83126
C         37.91320        16.33530        -1.35657
C         39.27283        14.20202        -1.29425
C         39.19862        17.09493        -1.58099
C         37.79902        19.14414        -1.68749
C         39.07356        18.50153        -1.78693
C         40.62850         1.97593        -0.57167
C         40.81550         3.42761        -0.35969
C         41.83347         4.15398        -1.12409
C         40.68437         6.30553        -0.76376
C         40.68267         7.74647        -0.92958
C         41.81780         5.51335        -1.18969
C         41.87468         8.46482        -1.12047
C         40.69404        10.59770        -1.05375
C         40.73265        12.08825        -1.01306
C         41.87673         9.86114        -1.16889
C         41.84365        12.87223        -1.61822
C         40.47272        14.94783        -1.79464
C         40.42576        16.44369        -1.79976
C         41.75425        14.19322        -1.86754
C         41.56351        17.21818        -2.09850
C         40.23325        19.24468        -2.12605
C         41.46193        18.60745        -2.24568
O         17.60435        14.31100         2.85125
O         40.39105        12.64597         0.33026
O          2.44522         4.63197        -2.51713
O         34.00309         3.99442         2.00335
O         34.41966        13.90459         2.01417
O         29.60546        18.13272         1.79355
O         26.77682         9.26188        -0.82954
O         39.48668        14.35696        -2.75352
O         20.35684         8.73811        -0.76336
O         40.67246         3.91695         1.00964
O         34.18897        16.77751         1.77609
O         21.81441         6.11259        -1.20398
O         38.44613         2.67730         1.57681
O         17.64694        16.93123         2.84556
O         24.32263         3.79747        -0.90214
O         35.48159        11.65947        -1.84432
O         36.88989         9.02336        -2.15091
O         12.80441         6.13386        -1.73596
O          2.76200        17.18562        -1.79356
O         23.98318         7.88920         2.36355
O         23.37636        15.45909         2.89386
O         30.01485        14.85451        -1.10184
O         32.55504         5.73034        -1.11156
O         25.51980        12.40050         2.63527
O         13.61628        16.75668         2.05639
O         34.98339        19.27363         1.55815
H         34.78494        18.60169         2.25192
O          8.94200        15.01042        -2.66410
H          8.32961        15.69708        -3.02837
O         33.57794        10.52956         1.59333
H         33.39241         9.60580         1.86960
O         16.82900         9.59508         2.63435
H         16.63212        10.47312         3.02991
O         25.24277        17.35526         2.95141
H         24.90587        16.61582         3.50682
O         11.50257        16.45055        -2.11971
H         10.76222        15.98478        -2.58240
O         37.57132        17.39007         0.78092
H         37.31683        16.66899         1.41474
O         25.49609         3.49746         2.54051
H         26.24536         3.09533         3.02857
O         29.69074         4.32715         2.70209
H         29.88046         3.42469         3.03782
O         36.42784        15.23821         1.71936
H         35.75991        14.80882         2.34692
O         34.99449        16.09257        -1.56803
H         35.70048        15.91247        -2.24120
O         17.12447         5.18193         1.78833
H         17.04081         6.00571         2.31331
O         31.89227        12.94530        -1.79021
H         31.15894        13.58167        -1.97735
O         19.56090         9.28446         2.77359
H         18.60312         9.25274         3.02512
O         25.31537        16.52895        -0.60652
H         25.96264        16.07005        -1.18226
O         21.90288        17.57763         3.17537
H         22.09053        16.78540         3.72803
O         37.35893        16.17093        -2.70750
H         37.96303        15.53461        -3.16729
O         13.46768         3.41490        -2.18637
H         13.33539         4.34736        -2.48593
O          5.10390         8.63034        -2.92659
H          5.17051         7.70343        -3.24285
O         17.32198         4.66930        -1.83186
H         17.31454         3.86109        -2.38591
O         25.86438         6.38091        -0.87179
H         25.16335         6.99531        -1.17972
O         22.21445        14.31366        -0.42294
H         21.49251        13.77024        -0.80432
O         11.19934         6.31258         1.52918
H         10.40312         6.71037         1.94071
O          7.47826        17.37893        -2.62015
H          6.65019        17.83664        -2.88322
O          3.43293        14.83913        -2.59812
H          2.84633        15.58833        -2.85999
H          0.41939         1.07560        -0.54907
H          0.45700         3.07654        -2.08662
H          2.53943         0.40811         0.59708
H          0.34381         6.09304        -2.26190
H          0.28243         8.45203        -1.47105
H          0.31552        10.18066        -0.65314
H          0.31362        12.58752        -0.31047
H          0.47797        14.42666         0.34324
H          0.44344        16.85487         0.54459
H          1.74691        19.01585         0.71729
H          4.90523         0.55016         0.75094
H          3.87605        20.23635         0.47831
H          7.29595         0.45741         0.50801
H          6.19710        20.30735         0.02801
H          9.76758         0.35283         0.27417
H          8.62466        20.33136        -0.03930
H         12.26112         0.31191         0.23225
H         11.08910        20.32678        -0.04922
H         14.73435         0.27443         0.06686
H         13.53386        20.29401         0.28735
H         17.19977         0.27070        -0.08826
H         16.02153        20.22085         0.37298
H         19.64039         0.22933         0.12023
H         18.44173        20.16490         0.57060
H         22.09475         0.18322         0.43153
H         20.83655        20.09700         0.35170
H         24.67088         0.17586         0.52272
H         23.28446        20.09808         0.24553
H         27.15350         0.25334         0.58389
H         25.68544        20.20923         0.20712
H         29.58290         0.26150         0.82160
H         27.98251        20.36968        -0.10457
H         32.05851         0.24045         0.60375
H         30.80205        20.22300        -0.57254
H         34.57171         0.27573         0.39997
H         33.13465        20.32670        -0.23594
H         36.92473         0.29054        -0.11378
H         35.38723        20.22739        -1.12207
H         39.40047         0.25041        -0.51035
H         37.72094        20.20144        -1.98713
H         41.45540         1.42910        -1.05086
H         42.62379         3.58169        -1.63217
H         42.63324         6.02218        -1.72274
H         42.83542         7.93585        -1.17459
H         42.83836        10.38401        -1.26498
H         42.80479        12.36355        -1.78775
H         42.64301        14.72374        -2.24084
H         42.53921        16.73510        -2.24470
H         40.15409        20.33012        -2.28119
H         42.36059        19.19083        -2.48933
