         276
 CSIRO Nanostructure Databank - Neutral Graphene Oxide Data Set
C        -10.94597         0.76406         0.83462
C         -9.79295         1.53334         0.37905
C         -8.41331         0.89268         0.43103
C         -7.66368         1.31708        -0.84798
C         -6.29666         0.62338        -0.94754
C         -5.05222         1.39317        -0.64399
C         -3.76839         0.66535        -0.80139
C         -2.55246         1.44001        -1.33300
C         -1.26693         0.80270        -0.75107
C          0.01729         1.44124        -1.31167
C          1.28694         0.68529        -0.91699
C          2.57140         1.43107        -1.08593
C          3.78035         0.73310        -0.49905
C          5.04774         1.51577        -0.38403
C          6.35278         0.80145        -0.47422
C          7.51100         1.50930        -0.58695
C          8.90068         0.94857        -0.72302
C          9.89413         1.47697         0.34220
C         11.17059         0.67654         0.26914
C         -9.95080         2.78827        -0.10362
C         -8.87490         3.64558        -0.73027
C         -7.58942         2.84610        -1.02747
C         -6.30321         3.61618        -1.06171
C         -5.05922         2.88105        -0.63281
C         -3.73912         3.58241        -0.54991
C         -2.49823         2.88500        -0.81064
C         -1.22504         3.59386        -0.63106
C          0.14346         2.91301        -0.80813
C          1.22860         3.67415        -1.64428
C          2.57177         2.94339        -1.26894
C          3.65522         3.69395        -0.46108
C          4.99583         2.98775        -0.71858
C          6.28463         3.74357        -0.78097
C          7.62936         3.01691        -0.83315
C          8.76578         3.67471        -0.05220
C          9.95115         2.97962         0.16796
C         -8.58032         4.88872         0.10914
C         -7.46522         5.65388        -0.05193
C         -6.40478         5.17309        -1.04130
C         -5.00719         5.89914        -0.92435
C         -3.78110         5.09701        -0.54022
C         -2.51450         5.86187        -0.65316
C         -1.22814         5.12024        -0.62139
C         -0.10818         5.95380        -1.24920
C          1.30120         5.27324        -1.55869
C          2.50417         5.89284        -0.86959
C          3.67826         5.20989        -0.69053
C          4.96332         5.93655        -0.41184
C          6.26819         5.20751        -0.43045
C          7.42128         5.73663         0.36828
C          8.65559         5.02567         0.34719
C         -7.42018         7.04980         0.37391
C         -6.28100         7.80843         0.30954
C         -4.96909         7.09637         0.16935
C         -3.78371         7.98184        -0.31503
C         -2.50747         7.16614        -0.24445
C         -1.23716         7.78443         0.19209
C          0.03231         7.21329        -0.36958
C          1.17154         8.17729        -0.65202
C          2.45975         7.40505        -1.05562
C          3.63263         7.66829         0.98604
C          4.94966         7.27485         0.33446
C          5.90962         7.35061         1.56801
C          7.27508         6.83816         1.18727
C         -6.21683         9.23091         0.58205
C         -5.04213         9.92779         0.62813
C         -3.74224         9.30914         0.42273
C         -2.55817         9.91113         0.72000
C         -1.27850         9.12413         0.91833
C          0.05361         9.84399         0.85261
C          1.22098         9.28254         0.42450
C          2.46734         9.87130         0.92963
C          3.57189         9.13518         1.22862
C          4.80336         9.60896         1.86268
C          5.87310         8.79774         2.05014
C        -10.85719        -0.50795         1.26608
C         -9.53386        -1.21568         1.41061
C         -8.47099        -0.63066         0.50228
C         -7.49747        -1.40529        -0.02758
C         -6.25028        -0.82857        -0.59993
C         -4.94334        -1.47678        -0.25703
C         -3.74598        -0.69602        -0.63261
C         -2.50848        -1.41524        -1.04234
C         -1.13826        -0.73388        -0.92666
C         -0.02725        -1.19637         0.12240
C          1.27688        -0.58237        -0.41995
C          2.49460        -1.47165        -0.57871
C          3.83046        -0.75357        -0.60866
C          5.00245        -1.44794        -0.62604
C          6.31227        -0.70617        -0.60713
C          7.56112        -1.49780        -0.34147
C          8.67437        -1.02418         0.57087
C         10.04123        -1.56643         0.24774
C         11.20241        -0.67721         0.18759
C         -9.65708        -2.71636         1.31961
C         -8.69928        -3.50085         0.77097
C         -7.53685        -2.91567        -0.01939
C         -6.21945        -3.44007         0.59084
C         -4.93285        -2.75744         0.27483
C         -3.72683        -3.54238         0.57589
C         -2.47070        -2.80652         0.85740
C         -1.16119        -3.43545         0.53433
C         -0.01996        -2.71286         0.29646
C          1.25962        -3.23453         0.86492
C          2.55244        -2.63174         0.40334
C          3.77427        -3.48520         0.30891
C          5.00735        -2.97863        -0.47807
C          6.24182        -3.53734         0.28001
C          7.57235        -3.02745        -0.29977
C          8.76101        -3.65906         0.48724
C         10.05348        -2.92429         0.13291
C         -8.70649        -4.95754         0.80271
C         -7.51844        -5.64671         0.79245
C         -6.24413        -4.89021         0.95574
C         -4.95626        -5.65212         1.05171
C         -3.70801        -4.90602         0.78201
C         -2.36810        -5.63638         0.97088
C         -1.24606        -4.90219         0.24612
C         -0.12180        -5.64939        -0.42189
C          1.24545        -5.11410        -0.64845
C          2.43120        -5.73844         0.01556
C          3.66495        -4.99539         0.46482
C          5.00144        -5.72254         0.66864
C          6.14898        -5.02547        -0.06207
C          7.45909        -5.79788         0.10391
C          8.67408        -5.14992         0.22815
C         -7.44118        -7.06435         0.55070
C         -6.26577        -7.77607         0.54614
C         -4.98726        -7.16597         1.00985
C         -3.70072        -7.92826         0.78323
C         -2.41220        -7.15554         0.63280
C         -1.43080        -7.86394        -0.33183
C         -0.17535        -7.15363        -0.87139
C          1.31965        -8.14320        -0.67673
C          2.60577        -7.21469        -0.46138
C          3.65137        -7.84386         0.45687
C          4.96321        -7.18892         0.34018
C          6.15308        -7.91684         0.35028
C          7.38529        -7.22060         0.23160
C         -6.22344        -9.06763        -0.11616
C         -5.08536        -9.75132        -0.35150
C         -3.76625        -9.38456         0.26670
C         -2.55456        -9.60324        -0.66366
C         -1.25565        -9.31253         0.03463
C         -0.11502        -9.99901         0.25493
C          1.18022        -9.31763         0.28825
C          2.28909        -9.96565         0.75085
C          3.59606        -9.27682         0.85538
C          4.89432        -9.98760         0.85134
C          6.06337        -9.36293         0.55754
O          5.54400         3.38669        -1.99914
O          8.37561        -0.64906         1.69902
O          9.31787         0.39209        -1.72030
O         -2.57970        -2.45979        -1.68809
O         -0.31897         6.90914         0.99052
O         -2.52087        -1.75949         1.51628
O          5.75305        -4.99859        -1.48302
O          5.87322         6.04118        -1.56957
O          3.41013        -8.15540         1.86466
O         -6.89900         3.11695        -2.29951
O          1.66844         5.74799        -2.84279
O         -1.15418        -4.98052        -1.21656
O         -3.79957         4.40319         0.71312
O          7.28077        -1.05774        -1.68403
O          2.96233         2.06431        -2.35391
O          2.89576         6.85968         1.55038
O          2.66910        -5.51992         1.40561
O         -6.23506        -0.35282        -2.01114
O         -1.10873         4.41176         0.62114
O          1.46277        -8.73696        -1.89447
O          1.17915        -3.86033         1.91702
O         -4.01855         8.37096        -1.63587
O          3.54533        -2.64146         1.46540
O         -4.96007        -6.47236         2.28506
O         -7.55622        -3.38828        -1.33317
O         -5.23466         2.12275         0.61740
O         -2.71324        -7.88392         1.86488
O          0.80639         8.87896        -1.86567
O         -2.34849        -8.34743        -1.42735
O         -6.33788        -3.82685         1.98576
O          5.08314        -3.67229        -1.75364
O          4.25529         1.18716         0.80733
O          0.70968         2.76867         0.52767
H          0.21683         3.39503         1.11943
O         -1.37040         8.80926         2.35055
H         -0.79816         8.01960         2.49752
O         -6.95335         5.57723        -2.32098
H         -6.96112         4.76588        -2.89523
O         -0.07901         1.29711        -2.73356
H          0.67165         1.78663        -3.16050
O          3.34301         3.55426         0.94199
H          2.40374         3.26156         1.03763
O         -4.69446         6.44054        -2.18807
H         -5.53000         6.74938        -2.61495
O          7.78202        -3.50440        -1.62795
H          7.38001        -2.85753        -2.25472
O         -9.05949        -0.91466         2.77811
H         -8.36757        -1.57437         3.00214
O         -9.44184         4.16352        -1.95364
H         -8.82822         4.84816        -2.30283
O          0.97526         3.46109        -3.02822
H          1.37101         4.26717        -3.48580
O          8.09302         3.12274        -2.20301
H          7.30006         3.04972        -2.78366
O         -2.67129         1.43921        -2.75822
H         -1.75301         1.42311        -3.14022
O          5.46300         6.46466         2.61697
H          4.47689         6.44700         2.63727
O         -3.60997       -10.26968         1.39744
H         -3.02081        -9.81196         2.04025
O         -0.26272        -7.06096        -2.26373
H          0.32626        -7.81397        -2.60837
O         -8.48172         0.85467        -1.93348
H         -7.93761         0.23616        -2.47791
O          3.22815        -7.09388        -1.72892
H          2.74079        -7.77755        -2.29857
O         -4.62996         6.59282         1.44597
H         -5.43704         6.38143         1.95797
O         -2.02052        -5.51000         2.36016
H         -2.58642        -6.14748         2.85722
O          3.28854         7.99775        -1.72668
H          1.63817         9.03607        -2.36928
O         -7.72012         1.37154         1.59891
H         -8.10762         0.89674         2.37168
O          9.34223         1.43698         1.68776
H         10.00727         1.06053         2.30029
O          6.17293        -3.19360         1.65017
H          5.75494        -3.92830         2.16332
O          5.38455         8.31845        -0.54094
H          5.62731         7.90359        -1.40203
O         -0.66026         6.34161        -2.50899
H          0.13089         6.40324        -3.12170
O         -0.12325        -0.69814         1.46109
H         -0.98587        -1.01149         1.84755
O         -1.45311         1.15749         0.62606
H         -0.60023         1.06890         1.11633
O          1.44416        -4.62474        -1.84065
H          0.58216        -4.53120        -2.31503
O          5.26938        -5.67122         2.09601
H          4.49965        -6.09075         2.54672
O         -0.52213        -1.06642        -2.19068
H         -1.08733        -1.75610        -2.61436
O          8.64176        -3.55771         1.92506
H          8.34968        -2.65214         2.17517
O          2.28470        -2.12905        -1.86794
H          1.93986        -1.46101        -2.50117
H         12.18257        -1.17242         0.09707
H         12.12366         1.22701         0.22785
H         10.80784         3.51759         0.60999
H          9.51031         5.47443         0.87914
H          8.15308         7.21381         1.73798
H          6.76558         9.18958         2.56193
H          4.83144        10.64961         2.22246
H          2.44043        10.93934         1.20513
H          0.12914        10.70917         1.53422
H         -2.58013        10.91171         1.18376
H         -5.06495        10.99522         0.89726
H         -7.16530         9.75353         0.77793
H         -8.37538         7.52068         0.65531
H         -9.41076         5.28701         0.71380
H        -10.96052         3.22915        -0.12077
H        -11.93051         1.25412         0.77160
H        -11.76270        -1.04761         1.58196
H        -10.49665        -3.17786         1.86569
H         -9.66295        -5.50302         0.80767
H         -8.35970        -7.57077         0.21567
H         -7.17393        -9.43950        -0.52805
H         -5.12397       -10.69948        -0.90801
H         -2.62578       -10.50848        -1.30910
H         -0.13706       -11.09626         0.35424
H          2.19002       -10.95212         1.23173
H          4.88308       -11.07853         0.99607
H          6.99655        -9.94450         0.52094
H          8.32695        -7.78414         0.31857
H          9.58210        -5.75995         0.36589
H         10.98793        -3.47840        -0.05223
