         762
 CSIRO Nanostructure Databank - Neutral Graphene Oxide Data Set
C         23.12738        24.66669        -0.87679
C         21.88941        25.26310        -0.67447
C         22.90794        27.42290        -0.21627
C         21.79688        26.62277        -0.26662
C         22.81571        28.79161         0.36470
C         21.62046        29.61871         0.14187
C         22.81209        31.65717         0.87513
C         21.63961        30.95213         0.37250
C         22.73312        33.08369         1.16238
C         21.57305        33.81940         0.97636
C         22.74817        35.97459         0.95771
C         21.57667        35.23023         0.88786
C         22.81370        37.37555         0.61485
C         21.65051        38.09110         0.26645
C         22.88543        40.18322         0.18992
C         21.67923        39.46747         0.09627
C         22.86149        41.70284         0.21570
C         21.67636        42.36574        -0.43465
C         22.98840        44.34691        -1.00344
C         21.75709        43.62670        -0.95502
C         23.07068        45.73605        -1.52696
C         22.35710        45.83972        -2.81132
C         24.01690        47.38631        -3.68139
C         22.93291        46.53755        -3.86876
C         25.72559        23.35981        -0.84524
C         25.62294        24.77338        -0.88476
C         24.32771        25.39686        -0.78132
C         25.44973        27.57097        -0.09274
C         24.23442        26.90877        -0.72361
C         25.37270        28.99468         0.24231
C         24.07143        29.53945         0.73170
C         25.19750        31.59501         1.73476
C         24.01580        30.99500         0.98868
C         25.24690        33.10881         1.66791
C         23.94361        33.78672         1.60864
C         25.26644        36.00377         1.37312
C         23.95920        35.32919         1.47486
C         25.26794        37.37787         1.05107
C         24.06202        38.06986         0.70190
C         25.37318        40.15248         0.34973
C         24.08332        39.48023         0.43855
C         25.39075        41.55586        -0.13117
C         24.15318        42.31786        -0.24281
C         25.38950        44.45722        -0.43795
C         24.19284        43.67334        -0.63964
C         25.40119        45.85410        -0.53048
C         24.30191        46.55633        -1.29165
C         25.86957        48.53794        -2.32385
C         24.63203        47.60694        -2.36290
C         26.49124        49.08109        -3.55431
C         28.13178        22.97990        -1.29548
C         26.90675        22.57683        -0.80412
C         28.12287        25.13008        -0.96828
C         26.78594        25.61451        -0.72859
C         27.95770        27.58678         0.16169
C         26.67365        26.93397        -0.21702
C         27.94734        29.03104         0.55858
C         26.65246        29.79428         0.58356
C         27.70398        31.60718         2.04091
C         26.54070        30.98869         1.39802
C         27.64722        33.10926         2.29840
C         26.41105        33.84183         1.87282
C         27.74090        35.96332         1.69091
C         26.45510        35.27501         1.67948
C         27.78709        37.38352         1.37188
C         26.49851        38.18442         1.37971
C         27.84768        40.21584         0.52295
C         26.54267        39.51520         0.66074
C         27.87140        41.69344         0.60798
C         26.67247        42.36010         0.09381
C         27.70213        44.62165         0.73566
C         26.50645        43.82216         0.28252
C         27.75998        46.06033         0.38122
C         26.48164        46.59415         0.01060
C         28.16835        48.47864        -1.28155
C         26.81754        48.39704        -1.20070
C         28.75627        49.05181        -2.50515
C         27.81688        49.30604        -3.62755
C         30.69262        20.27460        -0.80356
C         29.48944        20.88453        -0.93099
C         30.66963        23.19745        -0.71939
C         29.44176        22.33429        -1.13691
C         30.60860        24.79636        -0.54164
C         29.24499        25.45745        -0.25228
C         30.33458        27.37053         1.09961
C         29.03496        26.64054         0.71327
C         30.43488        28.91153         1.05554
C         29.08908        29.53543         1.39693
C         30.29721        31.67794         2.16875
C         29.02864        30.89093         2.03533
C         30.23049        33.05824         2.29108
C         28.94294        33.87216         2.60632
C         30.15028        36.06374         2.12731
C         28.91718        35.29006         2.03755
C         30.22534        37.42000         1.59181
C         28.99929        38.07048         1.30746
C         30.29998        40.27583         1.28036
C         29.09505        39.49430         0.89492
C         30.26073        41.72277         1.23327
C         29.00376        42.39808         0.96261
C         30.22714        44.67931         1.16122
C         28.95655        43.88477         1.09740
C         30.22498        46.13963         0.79254
C         28.98832        46.77374         0.39179
C         30.35312        48.95690         0.00711
C         28.96181        48.26681         0.00144
C         30.73201        49.95565        -1.02832
C         29.96938        49.93502        -2.31250
C         31.22404        51.87824        -3.07643
C         30.14635        51.08126        -3.21411
C         33.29905        19.19522        -1.60754
C         33.12077        20.23173        -0.63603
C         31.90603        20.99973        -0.52059
C         32.92643        23.14556         0.33800
C         31.84580        22.41230        -0.20025
C         32.86671        24.58521         0.50908
C         31.70457        25.29850         0.39023
C         32.88364        27.47357         1.15545
C         31.64107        26.65974         0.99219
C         32.86766        28.79561         1.52587
C         31.55536        29.43586         1.97081
C         32.79329        31.60883         2.00928
C         31.56501        30.95849         2.01454
C         32.81529        33.07235         2.23819
C         31.50292        33.80313         2.41443
C         32.60418        35.94578         1.54184
C         31.49246        35.29840         2.22644
C         32.68066        37.35782         1.45236
C         31.46820        38.10894         1.55270
C         32.69803        40.30244         1.89927
C         31.46760        39.56620         1.54122
C         32.70650        41.80786         1.71773
C         31.45041        42.48123         1.32406
C         32.70375        44.60141         1.22519
C         31.49462        43.90230         1.16217
C         32.65737        46.08262         1.34108
C         31.42895        46.82975         0.95145
C         32.85411        49.04276         0.80220
C         31.53181        48.30381         0.75397
C         33.00522        50.38768        -0.01603
C         31.94797        50.63726        -1.03390
C         33.56310        52.03920        -2.35263
C         32.27550        51.54163        -2.13518
C         33.87468        52.96331        -3.43054
C         35.73255        19.11635        -1.16427
C         34.54006        18.64126        -1.82019
C         35.56952        20.16186        -0.17980
C         34.26213        20.51635         0.14976
C         35.37655        23.09040         0.87052
C         34.11483        22.52383         0.87525
C         35.41415        24.55536         0.65427
C         34.11945        25.24517         0.97940
C         35.42049        27.47308         1.20843
C         34.14907        26.71803         1.21103
C         35.36985        28.84248         1.47007
C         34.11547        29.54242         1.63173
C         35.32209        31.73344         1.83056
C         34.06274        30.93040         1.81788
C         35.27312        33.20974         1.56276
C         33.91392        33.81754         1.56550
C         35.44885        36.18904         0.85604
C         33.62569        35.05453         1.05830
C         35.30513        37.48909         1.23960
C         33.98809        38.10307         1.53299
C         35.32502        40.36486         1.95321
C         34.00402        39.55436         1.90760
C         35.20756        41.79640         1.46289
C         33.99688        42.49824         1.46852
C         35.20779        44.62853         1.23414
C         33.96428        43.91708         1.29448
C         35.25081        46.06364         1.30286
C         33.97921        46.80521         1.42152
C         35.18735        48.87433         1.66709
C         34.05662        48.27691         1.20818
C         35.42480        50.75388         0.59533
C         34.35987        50.94152        -0.29537
C         35.98751        52.06254        -1.76824
C         34.65557        51.65158        -1.48906
C         36.34086        52.70826        -3.09033
C         35.13613        53.32929        -3.74196
C         38.39731        16.71197        -2.29767
C         37.19463        17.32834        -2.13980
C         38.20197        19.17860        -0.81540
C         36.99780        18.52974        -1.37532
C         38.06231        20.30509         0.14539
C         36.71168        20.81513         0.48631
C         37.90170        23.08388         1.19709
C         36.60793        22.30110         1.03079
C         37.92382        24.58955         1.18281
C         36.67414        25.32411         0.83248
C         37.89637        27.45711         1.09041
C         36.66303        26.78086         1.09867
C         37.89313        28.87829         1.14941
C         36.65659        29.55004         1.57095
C         37.79083        31.76547         1.00481
C         36.65217        31.05961         1.62957
C         37.70702        33.21318         0.83636
C         36.51590        33.90030         1.09691
C         37.82357        36.11116         0.95772
C         36.59126        35.37713         1.38345
C         37.77105        37.50988         0.99739
C         36.55005        38.23099         1.35052
C         37.71749        40.36107         1.04525
C         36.52668        39.61785         1.37190
C         37.65980        41.75624         1.02864
C         36.43239        42.49385         1.21915
C         37.66075        44.67608         0.77727
C         36.41946        43.90399         1.14276
C         37.70145        46.08741         1.27840
C         36.47444        46.75731         1.42830
C         37.74406        48.94255         1.45608
C         36.49369        48.18866         1.93466
C         37.86419        50.24041         0.91175
C         36.77219        50.94194         0.23550
C         38.47398        51.99304        -1.33319
C         37.04615        51.69246        -0.92727
C         38.58850        53.30361        -2.07024
C         37.55783        53.61897        -2.97787
C         38.92771        55.38200        -3.88810
C         37.72366        54.68844        -3.86950
C         40.06849        14.89411        -0.85179
C         40.62748        16.22819        -1.14183
C         39.72578        17.26369        -1.83655
C         40.64832        18.92092        -0.05750
C         39.55842        18.52858        -0.98951
C         40.50145        20.23211         0.58675
C         39.20025        20.94030         0.55460
C         40.47179        23.15797         0.94851
C         39.18985        22.39569         0.84471
C         40.44016        24.61034         1.31879
C         39.18824        25.36124         1.07859
C         40.38992        27.55531         1.03596
C         39.17476        26.75524         1.06446
C         40.32316        28.93288         0.76051
C         39.05145        29.62426         0.89722
C         40.10583        31.72831         0.07194
C         38.95722        31.05307         0.71843
C         40.08235        33.24652        -0.04038
C         38.90501        33.95120         0.48580
C         40.11836        36.06922         0.07637
C         38.96667        35.36332         0.53941
C         40.00394        37.52580        -0.07566
C         38.91143        38.25937         0.57939
C         40.13707        40.36178         0.26556
C         38.93049        39.65335         0.64036
C         40.08556        41.82961         0.27488
C         38.93974        42.49089         0.95237
C         40.19218        44.74068         0.83350
C         38.95055        43.96328         1.06853
C         40.24073        46.06654         1.23058
C         38.95146        46.75195         1.44613
C         40.19478        48.82440         1.85355
C         38.93662        48.15407         1.58528
C         40.26800        50.34760         1.54646
C         39.16618        50.84921         0.74095
C         40.70091        52.56476        -0.20343
C         39.44814        51.83592        -0.19685
C         40.83139        53.69880        -1.01235
C         39.79601        54.06146        -1.98680
C         41.54722        56.62387        -2.21877
C         39.94362        55.07160        -2.97869
C         41.64246        57.96117        -2.47440
C         41.78417        14.47211         0.83071
C         40.63203        14.07298         0.07194
C         42.30903        15.72609         0.69238
C         41.76561        16.72103        -0.26306
C         43.02911        18.83554         0.55030
C         41.80942        18.17887         0.11169
C         43.04142        20.24068         0.70006
C         41.79018        20.97175         0.94846
C         42.95579        23.15406         1.01032
C         41.78756        22.46018         1.00563
C         43.08774        24.68321         1.23840
C         41.72047        25.36772         1.29443
C         42.90992        27.54137         0.49481
C         41.70189        26.85691         1.07673
C         42.87374        29.06777         0.36026
C         41.48996        29.69761         0.36681
C         42.60709        31.80759        -0.32798
C         41.41105        31.04065         0.03510
C         42.58150        33.27570        -0.38580
C         41.35462        33.98188        -0.21825
C         42.49563        36.15999        -0.67941
C         41.31508        35.40090        -0.27852
C         42.47939        37.55176        -0.70882
C         41.23748        38.30498        -0.49639
C         42.52712        40.48204        -0.46706
C         41.29069        39.74843        -0.20999
C         42.58232        41.88256        -0.25808
C         41.31831        42.61925        -0.06026
C         42.68976        44.79347         0.33760
C         41.35416        44.08889         0.23614
C         42.75140        46.05269         1.12252
C         41.53798        46.72316         1.44397
C         42.51573        48.87389         2.39936
C         41.46023        48.09768         1.92332
C         42.64287        50.28891         2.10706
C         41.59221        50.92448         1.40335
C         43.08582        52.71782         0.72457
C         41.80544        52.10354         0.65695
C         43.27091        53.93533        -0.10869
C         42.10753        54.47648        -0.90617
C         42.85374        56.90230        -0.07117
C         42.02823        55.98812        -0.98889
C         42.96688        58.32070        -0.46188
C         42.33103        58.82044        -1.55314
C         45.67359        16.13585         0.86395
C         44.43703        16.78269         0.90977
C         45.51757        18.89872         0.35856
C         44.30836        18.15842         0.58711
C         45.46851        20.32365         0.35207
C         44.26397        20.95829         0.67674
C         45.32125        23.17974         0.10060
C         44.23783        22.41638         0.86713
C         44.78559        24.41446        -0.47581
C         43.94988        25.28671         0.13142
C         45.08858        27.40122        -0.91866
C         43.76993        26.69032        -0.46614
C         44.98777        28.88642        -1.14822
C         43.75052        29.63449        -0.73374
C         45.05910        31.79876        -0.73555
C         43.76703        31.12141        -0.64278
C         45.06027        33.31610        -0.69872
C         43.76264        34.01138        -0.64429
C         44.91623        36.13311        -1.19905
C         43.74215        35.43466        -0.88247
C         44.86535        37.54261        -1.60960
C         43.60038        38.34274        -1.23790
C         44.88543        40.54075        -1.17885
C         43.69042        39.80295        -0.95003
C         44.95937        41.91797        -0.86038
C         43.80948        42.60357        -0.35911
C         45.13949        44.67753         0.01131
C         43.89758        43.99220         0.02450
C         45.22447        45.99351         0.59972
C         44.10074        46.57535         1.28996
C         45.61181        48.42689         1.95820
C         44.40510        47.71431         2.06388
C         45.76303        49.70527         2.60483
C         43.85682        51.00740         2.28253
C         45.37702        53.03620         1.73374
C         44.12157        52.23280         1.60750
C         45.42426        54.30393         1.17617
C         44.42115        54.89339         0.22037
C         44.93047        57.05622         1.30146
C         43.99882        56.29496         0.65809
C         46.80898        16.82333         0.42908
C         47.94849        18.92094        -0.26613
C         46.76671        18.20617         0.17870
C         47.97696        20.39480        -0.22517
C         46.69087        21.13454         0.09896
C         47.61212        23.17678        -1.02312
C         46.53629        22.51092        -0.42327
C         47.58212        24.61798        -1.34304
C         46.41457        25.33557        -1.49004
C         47.48635        27.49286        -1.70720
C         46.24342        26.76735        -1.33624
C         47.46167        28.99709        -1.76199
C         46.20853        29.69335        -1.41752
C         47.43976        31.83493        -1.49587
C         46.24293        31.07818        -1.25930
C         47.43083        33.28592        -1.48267
C         46.26103        34.00746        -1.18055
C         47.34656        36.15088        -1.85572
C         46.27976        35.49950        -0.97930
C         47.40610        37.63893        -1.66339
C         46.12349        38.34143        -1.82156
C         47.43061        40.51801        -1.44835
C         46.12093        39.85117        -1.66954
C         47.45441        42.01886        -1.68698
C         46.10377        42.78575        -1.36080
C         47.50662        44.78710        -0.65037
C         46.28802        44.06382        -0.56640
C         47.56291        46.12371        -0.19078
C         46.47494        46.68781         0.52610
C         47.93622        48.68607         1.07220
C         46.68100        47.94518         1.17742
C         48.14264        49.92304         1.88794
C         46.93278        50.36876         2.59202
C         47.87164        53.15072         1.82550
C         46.68709        52.60813         2.27210
C         47.89716        54.66646         1.79421
C         46.52734        55.20850         1.46309
C         46.24491        56.54029         1.59373
C         50.20589        18.99494        -1.20020
C         49.07527        18.27846        -0.76895
C         50.22280        20.39595        -1.31736
C         49.02263        21.13294        -0.96706
C         49.93051        23.23353        -2.01900
C         48.86785        22.48295        -1.23758
C         50.04216        24.69432        -1.60537
C         48.82774        25.37430        -1.42469
C         49.97606        27.53636        -1.51557
C         48.77837        26.79572        -1.51572
C         49.94657        28.98937        -1.51722
C         48.73917        29.69953        -1.58621
C         49.90031        31.84104        -1.64170
C         48.69546        31.13919        -1.59423
C         49.91223        33.27054        -1.95158
C         48.64713        34.00378        -1.77162
C         49.85279        36.13256        -1.66561
C         48.66415        35.42305        -1.75774
C         49.79686        37.54540        -1.24882
C         48.57277        38.33666        -1.51308
C         49.93919        40.48414        -1.39753
C         48.60653        39.79095        -1.45069
C         49.90545        41.96570        -1.23303
C         48.70102        42.68562        -1.14547
C         49.99263        44.75976        -0.79499
C         48.74959        44.09234        -0.96163
C         50.06043        46.22093        -0.74999
C         48.74712        46.95941        -0.44738
C         50.10976        49.10454        -0.20591
C         48.90272        48.27188         0.19282
C         50.24481        50.42862         0.54521
C         49.26280        50.89471         1.56585
C         50.38133        53.22230         1.54662
C         49.16972        52.39966         1.89608
C         50.20938        54.59009         0.98260
C         49.03057        55.22964         0.98491
C         52.66334        20.47494        -1.78612
C         51.39039        21.10361        -1.75702
C         52.59579        23.35172        -2.10599
C         51.28951        22.52891        -2.09989
C         52.53818        24.76447        -1.70645
C         51.26862        25.42267        -1.60386
C         52.43181        27.56774        -1.17026
C         51.22163        26.84459        -1.42635
C         52.39075        29.02233        -1.11768
C         51.18386        29.69645        -1.33151
C         52.47649        31.94059        -1.38741
C         51.14862        31.16494        -1.30653
C         52.54202        33.36041        -1.79667
C         51.23729        34.01980        -2.07337
C         52.45704        36.23207        -1.65174
C         51.16661        35.50879        -1.94033
C         52.33880        37.50493        -0.90637
C         51.03398        38.20502        -0.78184
C         52.34168        40.26776        -0.16731
C         51.17653        39.69708        -0.93083
C         52.75697        41.54501        -0.44377
C         51.10005        42.70160        -1.22906
C         52.51293        44.66884        -0.59100
C         51.20918        44.04578        -0.84213
C         52.57869        46.08950        -0.52647
C         51.35727        46.89625        -0.49137
C         52.68926        48.95479        -0.32053
C         51.39025        48.25433        -0.26763
C         52.75696        50.42720         0.03596
C         51.48127        51.16750         0.35886
C         52.89151        52.82835         1.67411
C         51.61703        52.53620         1.03874
C         53.84392        21.16019        -1.94996
C         55.16609        23.39105        -1.54902
C         53.90403        22.60880        -2.03635
C         54.97658        24.79112        -1.16029
C         53.72633        25.45200        -1.29852
C         54.80030        27.56216        -0.45544
C         53.62799        26.85668        -0.99179
C         54.83060        29.10435        -0.56593
C         53.62222        29.77466        -1.06759
C         54.95615        31.79109        -1.63869
C         53.68180        31.12132        -1.38030
C         55.00649        33.24974        -1.76103
C         53.77134        34.04269        -1.80252
C         54.87150        36.25885        -1.24288
C         53.76687        35.50071        -1.60871
C         54.74788        37.61072        -0.65082
C         53.40370        38.09694        -0.32479
C         54.47196        39.81430         1.14604
C         53.16825        39.24580         0.63283
C         54.53318        42.08434         1.18952
C         53.64789        42.48740         0.21162
C         54.90276        44.58703        -0.04177
C         53.68116        43.90601        -0.22285
C         55.02446        45.95224        -0.37533
C         53.84757        46.74056        -0.45143
C         55.16284        48.81240        -0.09340
C         53.94200        48.16943        -0.29686
C         55.23241        50.17936         0.37893
C         54.03231        50.94100         0.57791
C         54.02011        52.07740         1.42380
C         57.30022        23.27240        -0.28231
C         56.28160        22.65207        -0.91269
C         57.44711        24.74107        -0.34391
C         56.19602        25.51286        -0.75263
C         57.20300        27.64686         0.08069
C         56.10097        26.92336        -0.35153
C         57.24752        29.08929        -0.04592
C         56.13746        29.74243        -0.58329
C         57.46998        31.84613        -0.95266
C         56.27319        31.05234        -1.22527
C         57.50223        33.17073        -1.40675
C         56.30315        33.75142        -1.93778
C         57.29750        36.19017        -0.63325
C         56.24565        35.85750        -1.45032
C         57.09758        37.31821         0.30453
C         55.93483        38.21476         0.03020
C         57.02118        40.16690         1.20801
C         55.73798        39.38945         0.93812
C         57.09840        41.68876         1.29381
C         55.89606        42.63128         1.29387
C         57.45371        44.32492         0.14256
C         56.08024        43.92165         0.57236
C         57.58569        45.71830        -0.39200
C         56.34760        46.56662        -0.55300
C         57.69991        48.65110         0.16596
C         56.43296        48.08968        -0.34114
C         57.66853        49.92310         0.70782
C         56.48816        50.69189         0.75347
C         59.66969        24.84313         0.80099
C         58.50657        25.46344         0.42070
C         59.63207        27.72836         0.98220
C         58.37431        26.91880         0.62075
C         59.65746        29.17847         0.62392
C         58.50221        29.82256         0.10597
C         59.81830        31.89297        -0.20492
C         58.58843        31.19292        -0.30255
C         60.00483        33.22173        -0.93198
C         58.71437        34.01607        -1.16569
C         59.70337        36.04184         0.16105
C         58.61364        35.50515        -0.70750
C         59.54804        37.16792         0.96207
C         58.24715        37.88335         1.06181
C         59.22910        39.64053         2.40088
C         58.19664        39.29108         1.57143
C         59.39429        42.00302         2.42026
C         58.36190        42.46854         1.59341
C         59.80610        44.37002         0.97743
C         58.57260        43.68911         0.89868
C         60.12363        45.47512        -0.04606
C         58.92463        46.40174        -0.30813
C         60.19938        48.36141         0.67712
C         58.96759        47.88371         0.04312
C         60.84475        25.59357         1.13867
C         60.87297        26.95570         1.09844
C         60.83606        29.91773         0.78050
C         60.91947        31.24885         0.36234
C         61.10662        34.06667        -0.34187
C         60.96650        35.32338         0.12674
C         60.57259        37.65454         1.85714
C         60.38325        38.78852         2.59269
C         60.57841        42.73139         2.59741
C         60.79580        43.88484         1.84648
C         61.36435        46.24007         0.31359
C         61.35007        47.56699         0.69494
O         27.38909        32.16307         3.38987
O         45.35592        32.52267         0.52118
O         43.81185        29.11862        -2.07792
O         43.38889        16.05645         1.49086
O         47.65700        42.06903        -3.08215
O         34.09640        25.73215         2.35340
O         57.26758        41.00440         0.00676
O         35.19878        50.25821         1.88733
O         54.28045        40.94541         1.96266
O         57.31963        25.27378        -1.70197
O         32.36206        33.46136         3.56770
O         55.65849        38.56241        -1.35366
O         28.22390        24.17296        -2.00621
O         39.14435        43.15194         2.27604
O         55.79775        31.08904        -2.60856
O         39.81812        23.01956        -0.36723
O         50.14060        37.67606         0.23499
O         47.73459        20.96166         1.11519
O         30.42181        22.83452        -2.10897
O         58.64255        27.36626         1.99619
O         52.26754        42.07759        -1.64508
O         40.19936        37.95592        -1.47727
O         46.03440        39.21229        -2.99181
O         45.32062        23.07109         1.56157
O         30.93674        35.96824         3.36931
O         52.76152        50.00782        -1.37086
O         34.47990        35.56750         0.07688
O         30.59469        49.19866         1.42346
O         43.54229        48.18280         3.05836
O         26.23440        47.96834        -0.00555
O         42.84495        27.30330         1.92603
O         30.06663        48.57164        -2.94046
O         40.99632        20.30058         1.97851
O         34.03350        38.55983         2.97877
O         41.86271        44.88546        -0.88774
O         39.75524        32.37146        -1.20110
O         23.74062        34.66833         2.75855
O         28.38441        28.61864        -0.78520
O         57.21512        37.01210         1.73666
O         23.36398        28.75184         1.74384
O         28.73102        39.67107        -0.53657
O         26.32106        41.87444        -1.23580
O         43.19435        53.75393        -1.57686
O         50.96057        40.02908        -2.33663
O         35.44880        32.67105         2.95913
O         36.55468        21.14329         1.89791
O         39.16065        19.62927        -1.87871
O         28.87589        29.65224         2.82152
O         46.83402        35.91798        -3.24167
O         59.00172        35.11524        -2.06819
O         32.58075        41.18781         3.05172
O         40.30342        42.34675        -1.08903
O         44.70494        50.40845         3.22231
O         24.55366        49.02627        -1.96668
O         41.08244        25.00301         2.57733
O         47.39444        28.18410        -3.00170
O         37.89152        23.82311         2.45304
O         43.87761        37.89828        -2.60888
O         51.52206        52.44715        -0.41267
O         56.45160        35.00387        -2.53629
O         49.35475        49.96293         2.72880
O         30.87791        26.71781         2.27749
O         57.61345        44.54168        -1.28975
O         45.22510        24.65479        -1.78023
O         26.61975        44.27336         1.67202
O         41.12912        55.77093        -3.23409
O         36.14905        25.01247        -0.53007
O         51.74880        31.78888        -0.09962
O         50.07370        52.93245         2.94554
O         51.88531        36.24810        -3.00102
O         46.87611        51.60268         3.22620
O         42.00117        16.30462        -1.64701
O         50.57459        33.52053        -3.27574
O         56.03148        43.86808         2.06216
O         25.99614        29.89552        -0.73533
O         34.00225        21.21070         1.34019
O         51.92955        22.94666        -3.35236
O         54.91421        23.10467        -2.96267
O         36.93616        30.27588         2.83120
O         33.21156        46.51176         2.64834
O         54.52014        28.41754         0.69276
O         49.27440        46.85406        -1.80035
O         56.45880        47.47809        -1.67412
O         41.48193        56.49883         0.27474
O         59.17779        47.36162        -1.34570
O         23.06711        46.85272        -0.54745
O         59.25045        40.82097         3.15988
O         32.67478        50.35681         1.38660
O         29.46252        44.37856         2.38346
O         40.00390        49.85539         2.87925
O         24.28853        27.35878        -2.13871
H         25.16829        27.10605        -2.49342
O         28.20306        48.94017         1.02798
H         28.77567        48.99575         1.82682
O         31.01929        25.31573        -1.83291
H         30.62455        24.72132        -2.51508
O         22.75782        42.02800         1.65735
H         22.73141        43.00577         1.74108
O         28.99016        34.05894         4.03695
H         28.68581        33.21986         4.45233
O         45.17880        55.13783        -1.00249
H         44.70230        54.67073        -1.73339
O         31.32286        28.99797         3.32140
H         32.04191        29.34211         3.89011
O         36.65330        48.09652         3.38097
H         36.55213        48.99974         3.74984
O         52.42830        38.74037         1.76168
H         52.39365        39.44734         2.43974
O         37.65248        44.76239        -0.69415
H         36.87482        45.29572        -0.96145
O         35.65099        40.51946         3.36141
H         35.30847        39.71793         3.82273
O         43.71536        24.86170         2.51270
H         43.00899        24.84073         3.19552
O         38.86487        50.95456        -2.29486
H         38.26846        51.05160        -3.08178
O         60.46146        32.83821        -2.26170
H         60.34404        33.62616        -2.83802
O         36.52963        35.48720         2.85196
H         36.06120        34.70264         3.21623
O         43.54134        29.61367         1.53824
H         43.26938        29.05453         2.30517
O         26.33161        38.56092         2.80270
H         26.18308        37.73663         3.31523
O         47.63317        36.72305        -4.13912
H         47.09945        37.55307        -4.23641
O         24.91582        31.22443         3.12716
H         25.66235        31.57404         3.67355
O         46.66002        35.75403         0.40808
H         46.21769        35.08542         0.97406
O         49.40276        23.27164        -3.37843
H         50.17289        23.43026        -3.97333
O         28.44962        26.11632         1.92536
H         29.18505        25.99881         2.57428
O         30.84319        29.30624        -0.26715
H         30.11590        29.07031        -0.89630
O         40.40482        17.66086        -3.04837
H         40.00905        18.51816        -3.32446
O         49.86576        49.53024        -1.58553
H         50.72602        49.85373        -1.94531
O         48.16796        55.04301         3.18371
H         48.92931        54.48817         3.48193
O         36.76988        51.61560        -3.99081
H         35.99962        51.02296        -4.12443
O         45.61497        43.28728        -2.63013
H         46.27701        42.94564        -3.31042
O         60.39739        44.77297        -1.28308
H         59.52997        44.50633        -1.67227
O         42.93044        26.57316        -1.64177
H         43.47047        26.17904        -2.36082
H         23.15048        23.58989        -1.09401
H         20.97459        24.66007        -0.74935
H         20.81917        27.01376         0.04975
H         20.72911        29.15274        -0.30282
H         20.72856        31.52808         0.16313
H         20.62378        33.31119         0.76233
H         20.62981        35.71652         0.61869
H         20.68601        37.57327         0.18889
H         20.73526        39.99092        -0.10132
H         20.68565        41.90197        -0.33394
H         20.83848        44.12013        -1.30471
H         21.45926        45.23160        -2.98435
H         24.33989        48.01552        -4.52143
H         22.46730        46.48904        -4.86395
H         24.79818        22.79631        -0.66929
H         25.85370        49.31510        -4.41826
H         26.82143        21.56023        -0.39154
H         28.24805        49.66871        -4.57157
H         30.74111        19.17653        -0.78243
H         28.55689        20.30632        -0.98446
H         31.33924        52.74455        -3.73978
H         29.38704        51.29769        -3.97725
H         32.44610        18.86671        -2.21804
H         33.05222        53.40792        -4.00695
H         34.63564        17.85922        -2.58507
H         35.28574        54.01497        -4.58743
H         38.44501        15.83096        -2.95481
H         36.31415        16.86193        -2.60502
H         39.10499        56.17170        -4.62905
H         36.94476        54.95383        -4.59468
H         39.14112        14.59222        -1.35801
H         41.27872        58.36312        -3.42819
H         42.23062        13.77439         1.54990
H         40.19637        13.08281         0.26405
H         43.60912        58.97998         0.13721
H         42.42343        59.88692        -1.80076
H         45.74110        15.07953         1.15346
H         44.72927        58.11097         1.53764
H         47.75905        16.27871         0.35000
H         47.02404        57.23975         1.92656
H         51.07870        18.41325        -1.52437
H         49.10955        17.18156        -0.82054
H         51.06816        55.00108         0.43101
H         48.91792        56.20782         0.49476
H         52.72013        19.38552        -1.65596
H         52.90718        53.58225         2.47340
H         54.78165        20.59611        -2.04551
H         54.94212        52.35489         1.95266
H         58.05782        22.67942         0.25062
H         56.24645        21.55336        -0.92213
H         58.59349        50.38943         1.07279
H         56.57116        51.72630         1.11028
H         59.77486        23.75446         0.69015
H         60.24987        49.38204         1.07735
H         61.78091        25.03694         1.28686
H         61.83813        27.47766         1.15574
H         61.72931        29.44702         1.21216
H         61.88138        31.77000         0.45398
H         62.11643        33.63119        -0.36952
H         61.86074        35.83387         0.51260
H         61.50850        37.09267         1.97663
H         61.15732        39.12955         3.29304
H         61.34850        42.35620         3.28345
H         61.75219        44.41788         1.93753
H         62.32124        45.70409         0.24929
H         62.29070        48.02809         1.03207
