         276
 CSIRO Nanostructure Databank - Neutral Graphene Oxide Data Set
C        -10.44579         1.12000        -2.47425
C         -9.42475         1.81942        -1.65234
C         -8.35066         0.98214        -1.04350
C         -7.44866         1.57393        -0.00002
C         -6.10227         0.89731         0.13049
C         -5.00939         1.54090         0.92377
C         -3.80671         0.75009         1.34663
C         -2.67041         1.42633         1.73704
C         -1.32405         0.77711         1.68889
C         -0.20077         1.38539         1.18187
C          1.16637         0.67664         1.05608
C          2.13000         1.17892        -0.07453
C          3.51214         0.55340         0.19695
C          4.79015         1.19518        -0.38680
C          6.11282         0.76024         0.33077
C          7.39047         1.42613        -0.19111
C          8.57718         0.63712        -0.68130
C          9.48022         1.20445        -1.68969
C         10.62711         0.37276        -2.06967
C         -9.64301         3.17991        -1.10752
C         -8.73369         3.80981        -0.30871
C         -7.56613         3.03976         0.27901
C         -6.28357         3.68903         0.69862
C         -5.32007         2.88823         1.58283
C         -4.02348         3.66171         1.89015
C         -2.83524         2.80620         2.35321
C         -1.28485         3.73606         0.92766
C         -0.11709         2.86274         1.03094
C          1.08187         3.54444         0.35642
C          2.16772         2.69989        -0.22564
C          3.47159         3.41928        -0.48266
C          4.72706         2.69853        -0.44744
C          5.94429         3.57109        -0.47842
C          7.24312         2.80827        -0.73418
C          8.04651         3.23587        -1.96463
C          9.34223         2.48776        -2.13241
C         -8.92426         5.20899         0.10395
C         -7.83078         6.05174        -0.01328
C         -5.94371         4.87430         0.15351
C         -4.72558         5.69733         0.38076
C         -3.81755         5.08447         1.42605
C         -2.50962         5.85254         1.52044
C         -1.15891         5.14616         1.42057
C         -0.26032         5.76923         0.27465
C          0.88184         4.91447        -0.31150
C          2.20199         5.69274        -0.22509
C          3.49605         4.91900        -0.33628
C          4.64999         5.60660        -0.89350
C          5.69248         4.73962        -1.51259
C          6.97973         5.48535        -1.81962
C          8.10782         4.75038        -2.03539
C         -7.53405         7.32284         0.52981
C         -6.21621         7.88541         0.61308
C         -4.99113         7.19163         0.62571
C         -3.72795         7.94568         0.62184
C         -2.50784         7.31941         1.22130
C         -1.11913         8.02148         1.14956
C         -0.19938         7.26030         0.19220
C          1.04533         7.92915        -0.19383
C          2.21584         7.17083        -0.46450
C          3.41106         7.79516        -0.79082
C          4.48654         6.98227        -1.45395
C          5.80372         7.67921        -1.68324
C          6.94010         6.94267        -1.88884
C         -6.17475         9.32661         0.87879
C         -5.05000        10.08225         0.92025
C         -3.71865         9.50959         0.67744
C         -2.46950        10.17305         1.00903
C         -1.24256         9.52593         0.69422
C         -0.12623        10.10870         0.13901
C          1.09336         9.36989        -0.18136
C          2.28002        10.01536        -0.49140
C          3.58863         9.26659        -0.55372
C          4.67364         9.85642        -1.42303
C          5.73401         9.12614        -1.83825
C        -10.29364        -0.16597        -2.84560
C         -9.30947        -1.10103        -2.21273
C         -8.39377        -0.51271        -1.15460
C         -7.19035        -1.19852        -0.63736
C         -6.11571        -0.57076        -0.08100
C         -5.03787        -1.42394         0.52083
C         -3.86773        -0.79188         1.31663
C         -2.52369        -1.32292         0.73579
C         -1.32359        -0.70033         2.07512
C          0.06206        -1.47034         1.88938
C          0.93919        -0.82438         0.78298
C          2.30199        -1.64558         0.64572
C          3.54286        -0.73227         0.63478
C          4.85081        -1.44314         0.67241
C          6.08886        -0.63860         0.91443
C          7.33733        -1.42297         1.02313
C          9.08864        -0.35803         0.09041
C         10.24534        -1.25365        -0.20487
C         10.95087        -0.78079        -1.45163
C         -8.89765        -2.29195        -3.03113
C         -8.60236        -3.51658        -2.62824
C         -7.13994        -2.69419        -0.62990
C         -5.77151        -3.15708        -1.20337
C         -4.88793        -2.85040         0.04866
C         -3.62646        -3.58179         0.37362
C         -2.35729        -2.80035         0.49011
C         -1.08856        -3.57267         0.87403
C         -0.04566        -2.91842         1.62287
C          1.20053        -3.63645         1.96291
C          2.45746        -2.83411         1.63662
C          3.74226        -3.58835         1.48125
C          4.93651        -2.91902         0.85249
C          6.27064        -3.61395         1.11635
C          7.45698        -2.75103         0.69132
C          8.68178        -3.36136         0.16390
C          9.80296        -2.71630        -0.28385
C         -8.39370        -4.79860        -2.34086
C         -7.12664        -5.38210        -1.84112
C         -5.94324        -4.46449        -2.06246
C         -4.93599        -5.74564         0.73206
C         -3.66671        -4.90516         0.64568
C         -2.46324        -5.70607         0.95629
C         -1.06054        -5.10897         0.85827
C         -0.11696        -5.87540         1.87661
C          1.22087        -5.13383         2.06130
C          2.53907        -5.87511         1.94543
C          3.79863        -5.08167         1.64418
C          5.03858        -5.77671         1.16544
C          6.17399        -5.00950         0.47486
C          7.55928        -5.73445         0.40848
C          8.60449        -4.82698        -0.28146
C         -7.14803        -6.67271        -1.42605
C         -6.09188        -7.56279        -0.79476
C         -4.81325        -6.81885        -0.35482
C         -3.68862        -7.83994         0.03424
C         -2.51141        -7.18795         0.74649
C         -1.24647        -8.03355         0.92120
C          0.02089        -7.28545         1.28511
C          1.20839        -7.95390         1.19163
C          2.48725        -7.41665         1.81361
C          3.73225        -7.87448         1.05120
C          4.99834        -7.12735         1.27452
C          6.67933        -8.05709         0.04310
C          7.42718        -7.02855        -0.40843
C         -5.70825        -8.71761        -1.72503
C         -4.47775        -9.24040        -1.85079
C         -3.24868        -8.61281        -1.22595
C         -2.08651        -9.52673        -0.92475
C         -1.07184        -9.11792        -0.11123
C          0.20147        -9.80819        -0.08320
C          1.28086        -9.27881         0.56123
C          2.57473       -10.06286         0.61007
C          3.78093        -9.17565         0.31325
C          4.98813        -9.83000        -0.29137
C          6.21146        -9.30829        -0.55554
O         -0.97261         6.45229        -0.78579
O          3.46146        -5.51814         3.01447
O          3.43862        -7.92633        -0.39918
O         -5.01257         1.62750        -0.54973
O          2.27921        -2.27725        -0.59538
O         -0.52000         8.01913         2.37358
O         -7.94507        -3.41725        -0.09448
O          5.95798         0.54904         1.75173
O          7.92735         2.59971         0.53122
O         -1.66116        -8.81743         2.19154
O         -2.66917         6.81921         2.58521
O         -5.64578        -2.54934         1.25784
O         -2.15028         3.13726         3.31073
O         -2.83738        -6.61632         2.04437
O          1.20456        -4.30630         3.27307
O         -8.05100         2.02313         1.23645
O          2.97743         5.39335         0.96960
O         -9.61892        -1.22946        -0.79592
O          2.52263         3.05159        -1.58585
O         -8.09439         1.65249        -2.32268
O          4.92503        -2.36150        -0.49017
O         -3.53913         8.73511        -0.57314
O         -5.83983        -5.56074         1.50275
O         -1.82172        -0.98958         3.22263
O         -1.36180        -3.06347        -0.54036
O         -5.43922        -4.43721        -3.18090
O         -6.78914         5.47360        -0.78839
O          8.47105        -0.65478         1.30564
O          3.41313        -2.81466         2.70034
O          6.15270        -7.91007         1.35452
O          0.97607         3.48083         1.77852
O         -4.36734         4.80695         2.73584
O         -2.26744        -0.58157        -0.40290
H         -1.46749        -0.96764        -0.85252
O          4.12358         9.39248         0.82808
H          3.49832         8.93302         1.43066
O         -6.74726        -8.14989         0.34153
H         -6.06339        -8.63891         0.85894
O         -2.68890        -7.68572        -2.21608
H         -2.26361        -8.22208        -2.91810
O          2.74498       -10.61814         1.92466
H          2.61127        -9.89665         2.58329
O          1.68569         0.70004        -1.35054
H          2.17913         1.21216        -2.03268
O          5.11016         4.22755        -2.73778
H          5.71332         3.51980        -3.09246
O          5.71814        -4.83636        -0.88830
H          5.39134        -5.69741        -1.22511
O          0.77192        -1.30283         3.12776
H          0.20580        -1.65723         3.84788
O         -5.91413         2.59073         2.84982
H         -5.89507         3.40907         3.39180
O          7.24562         2.75556        -3.11385
H          7.77937         2.89066        -3.92520
O          0.24909        -0.96805        -0.44032
H          0.86390        -1.54578        -1.00059
O          6.05718         4.27082         0.78521
H          6.67101         3.74487         1.35408
O         11.19669        -1.16090         0.89218
H         10.67483        -1.20849         1.72266
O          8.01539        -5.99032         1.74737
H          7.51795        -6.77441         2.08060
O         -0.72106        -5.96948         3.16256
H         -0.29903        -5.28509         3.73629
O         -0.54468        -9.55883         2.69841
H         -0.16499        -8.95271         3.38200
O          3.93163         6.68904        -2.79872
H          4.33935         5.84475        -3.12488
O          0.55451         4.64963        -1.68005
H          0.02286         5.41304        -2.00967
O          1.88592         0.91139         2.26687
H          1.47763         0.37821         2.99180
O         -4.23761        -8.81519         0.94710
H         -3.63724        -8.89568         1.72417
O         -0.54136        -5.50163        -0.43350
H         -0.78497        -4.79473        -1.07809
O          4.88630         0.67729        -1.75079
H          4.54758        -0.24645        -1.75316
O          8.33674        -4.81409        -1.69327
H          7.41123        -4.49097        -1.80844
O         -3.94990         5.63397        -0.85103
H         -4.52044         5.97354        -1.57442
O          6.41390        -3.81320         2.53455
H          7.15864        -4.44650         2.66940
O          2.53897        -7.96319         3.15489
H          3.03623        -7.31291         3.70759
O         -4.05668        -1.15965         2.67373
H         -4.59881        -1.98385         2.70735
O         -4.36408        -5.98857        -1.44179
H         -4.11945        -6.53731        -2.22579
O         -5.32147        -2.18849        -2.17019
H         -5.04694        -2.70715        -2.97101
O         -0.47430         5.28045         2.63907
H         -0.54370         6.24385         2.90340
O         -2.11850         3.55255        -0.10182
H         -1.99781         2.68207        -0.53937
H         11.81648        -1.36568        -1.79692
H         11.22894         0.71690        -2.92520
H         10.08765         2.90640        -2.82701
H          9.06432         5.24431        -2.26832
H          7.88625         7.46207        -2.11184
H          6.57322         9.62650        -2.34750
H          4.66345        10.94481        -1.58682
H          2.32471        11.11482        -0.44284
H         -0.18022        11.15841        -0.19341
H         -2.48471        11.15124         1.51673
H         -5.11467        11.14629         1.19262
H         -7.14307         9.81872         1.05654
H         -8.36614         7.93961         0.90218
H         -9.89580         5.55038         0.48994
H        -10.52453         3.73472        -1.46328
H        -11.26571         1.72160        -2.89540
H        -11.01205        -0.61240        -3.55058
H         -8.76958        -2.05963        -4.10737
H         -9.26000        -5.48546        -2.37496
H         -8.13432        -7.16830        -1.45000
H         -6.54730        -9.21508        -2.23781
H         -4.32572       -10.11947        -2.49922
H         -1.92817       -10.39680        -1.58353
H          0.29848       -10.75448        -0.63729
H          2.52815       -10.91914        -0.10894
H          4.76361       -10.81507        -0.73511
H          6.90216        -9.87907        -1.19605
H          7.85951        -7.04351        -1.41986
H          9.60918        -5.30037        -0.14556
H         10.56593        -3.36272        -0.75089
