         349
 CSIRO Nanostructure Databank - Neutral Graphene Oxide Data Set
C          1.44216         3.37139         0.87201
C          0.25069         4.03829         1.02857
C          1.32919         6.22309         0.80330
C          0.18369         5.45596         0.97777
C          1.30090         7.68303         0.76906
C          0.05856         8.40430         0.58650
C          1.13958        10.59374         0.89138
C         -0.00526         9.76191         0.50162
C          1.17731        12.06647         0.69693
C         -0.03097        12.80699         0.43924
C          1.26601        14.89315        -0.04031
C         -0.02940        14.12368         0.08965
C          1.15533        16.41592         0.11278
C         -0.04844        17.12725        -0.09518
C          1.10899        19.28396        -0.03133
C         -0.07898        18.51620        -0.10799
C          1.12643        20.73531        -0.07693
C         -0.06742        21.49922        -0.12483
C          1.17307        23.60947        -0.06047
C         -0.04247        22.88331        -0.09798
C          1.19329        25.06576        -0.02811
C         -0.00702        25.83028         0.09737
C          1.23722        27.92516         0.07078
C          0.01366        27.20771         0.15689
C          1.28952        29.34851         0.13254
C          3.86890         3.41593         0.47242
C          2.66368         4.09180         0.65611
C          3.77001         6.28235         0.49625
C          2.60254         5.54856         0.66153
C          3.76801         7.72597         0.58077
C          2.49690         8.40067         0.77844
C          3.77464        10.63630         1.06304
C          2.46523         9.85357         1.04941
C          3.64869        12.11560         0.73473
C          2.40163        12.76574         0.75177
C          3.63316        15.01685         0.89755
C          2.28799        14.27948         0.94252
C          3.61344        16.49165         0.60024
C          2.33268        17.16174         0.27262
C          3.57906        19.30071         0.05447
C          2.33752        18.57731         0.10320
C          3.58409        20.69295         0.01148
C          2.36796        21.43403        -0.03107
C          3.64228        23.57662        -0.11892
C          2.39808        22.87887        -0.05675
C          3.67026        25.01793        -0.21134
C          2.42160        25.75304        -0.11076
C          3.67144        27.89446        -0.19255
C          2.45141        27.18946        -0.08977
C          3.72126        29.30267        -0.06243
C          2.49145        30.01835         0.07904
C          6.28090         3.47740        -0.10523
C          5.08543         4.10668         0.14176
C          6.25329         6.36766        -0.09231
C          4.99447         5.58368         0.04622
C          6.29211         7.78095         0.44352
C          4.93872         8.45561         0.42068
C          6.08775        10.71982        -0.06174
C          4.86053         9.92828         0.27396
C          6.08968        12.16982         0.25202
C          4.86877        12.85400         0.53812
C          6.08037        14.98978         0.39715
C          4.88217        14.27895         0.60503
C          6.16650        16.49844         0.52319
C          4.85415        17.18459         0.25734
C          6.05802        19.23048        -0.26210
C          4.84084        18.55843         0.03272
C          6.00287        20.68035        -0.62144
C          4.91226        21.38662         0.22309
C          6.08509        23.51508        -0.30675
C          4.88901        22.86755        -0.08960
C          6.13915        24.95786        -0.72723
C          4.87107        25.69077        -0.40089
C          6.09762        27.76248         0.30722
C          4.94980        27.18409        -0.53533
C          6.19603        29.26255         0.07878
C          4.98635        29.97186        -0.05404
C          8.80845         3.52352        -0.22619
C          7.51458         4.20230        -0.59826
C          8.71441         6.37474        -0.31518
C          7.55409         5.66799        -0.21454
C          8.72827         7.83067        -0.17866
C          7.37949         8.52909        -0.33770
C          8.55181        10.69469         0.06268
C          7.39390        10.01172        -0.07469
C          8.58529        12.18321        -0.22119
C          7.28705        12.88006         0.14636
C          8.52825        15.06121         0.00069
C          7.28013        14.28530         0.21588
C          8.35040        16.26266        -0.88640
C          7.28849        17.13798        -0.27569
C          8.40828        19.15524        -1.16126
C          7.26401        18.50724        -0.49638
C          8.56397        20.60460        -1.08240
C          7.38152        21.30179        -0.46897
C          8.60453        23.53226        -0.53428
C          7.36606        22.79567        -0.29928
C          8.61737        24.90890        -0.33039
C          7.38988        25.64999        -0.20924
C          8.60631        27.71719         0.34220
C          7.40303        27.02601         0.10734
C          8.66708        29.17126         0.32937
C          7.43776        29.89516         0.12960
C         11.25462         3.56951         0.02420
C          9.98819         4.20788        -0.24599
C         11.25060         6.40379        -0.30257
C          9.99433         5.65644        -0.69631
C         11.23520         7.90547        -0.47481
C          9.89113         8.52926        -0.09033
C         11.07410        10.74730         0.08601
C          9.83175         9.96406         0.38218
C         11.08426        12.18650         0.37941
C          9.78574        12.92004         0.37294
C         10.99611        14.96252        -0.66215
C          9.83904        14.38907         0.06969
C         10.86069        16.23071        -1.37911
C          9.63411        16.94895        -1.34950
C         11.10621        19.56826        -2.31947
C          9.36260        18.31407        -1.75926
C         11.02767        20.79704        -1.66379
C          9.75102        21.34656        -1.22907
C         11.12418        23.50950        -0.75425
C          9.82917        22.73642        -0.68245
C         11.06140        24.98101        -0.61144
C          9.88272        25.61160        -0.29675
C         11.16085        27.69487         0.48154
C          9.87272        26.97463         0.27638
C         11.12365        29.16220         0.94077
C          9.88026        29.84965         0.42137
C         13.70268         3.57915         0.24234
C         12.44415         4.27183         0.05749
C         13.69671         6.47969         0.04332
C         12.41398         5.73415        -0.07026
C         13.66438         7.94232         0.33616
C         12.42321         8.59188         0.17555
C         13.63031        10.86731         0.42556
C         12.31269        10.02649         0.35917
C         13.46503        12.21282        -0.17282
C         12.29396        12.94735        -0.00325
C         13.36777        14.77815        -1.40625
C         12.19824        14.26390        -0.59585
C         13.37948        16.26777        -1.57690
C         12.12838        16.71069        -1.96079
C         13.52434        19.32969        -1.98158
C         12.30640        18.88083        -2.47586
C         13.52007        20.70009        -1.55003
C         12.30627        21.41872        -1.46146
C         13.61598        23.54698        -1.06337
C         12.31655        22.92381        -1.49513
C         13.63536        25.01734        -0.94629
C         12.31405        25.75290        -0.76909
C         13.65539        27.87752        -0.12390
C         12.33767        27.18011        -0.29565
C         13.64624        29.19870         0.56524
C         12.45394        29.86320         0.78395
C         16.19443         3.56364         0.36251
C         14.90971         4.22544         0.37124
C         16.09745         6.39365         0.96066
C         14.94567         5.70968         0.30398
C         16.10734         7.89320         0.98892
C         14.85960         8.61860         0.63801
C         16.25620        10.61506         0.04397
C         14.97200        10.13263         0.71423
C         16.34867        11.60832        -0.87905
C         14.48650        12.75807        -1.02761
C         15.98851        14.62313        -1.86943
C         14.69681        14.09397        -1.21374
C         15.95270        16.15939        -1.70199
C         14.66030        16.89079        -2.15785
C         15.99289        19.13669        -1.50673
C         14.74396        18.46053        -2.01666
C         15.96518        20.62456        -1.23710
C         14.79471        21.36040        -1.25944
C         16.01603        23.51172        -0.73308
C         14.80274        22.81811        -1.02351
C         16.04253        24.88644        -0.37484
C         14.87008        25.69355        -0.49772
C         16.09137        27.64777         0.34260
C         14.89061        27.05737        -0.14199
C         16.10462        29.03955         0.77920
C         14.91101        29.78258         0.85098
C         18.66078         3.60746         0.24682
C         17.38465         4.23520         0.53327
C         18.67291         6.40763         0.94265
C         17.39736         5.64320         1.02732
C         18.69910         7.75792         0.73280
C         17.47144         8.58087         0.91809
C         18.76547        10.69116         0.08028
C         17.51789        10.04709         0.57054
C         18.70003        12.00737        -0.61681
C         17.44715        12.55835        -1.01157
C         18.47501        14.72812        -1.23218
C         17.28984        13.93113        -1.34016
C         18.38061        16.15904        -1.14646
C         17.09924        16.85398        -1.30529
C         18.13606        18.80524        -0.21545
C         17.05775        18.25518        -0.96459
C         17.97918        19.97944         0.58870
C         17.25133        21.37572        -1.32797
C         18.06959        23.14722         0.52460
C         17.35554        22.82338        -0.81214
C         18.29682        24.61627         0.64991
C         17.25150        25.47784         0.14475
C         18.51699        27.48535         0.89689
C         17.26883        26.86283         0.43855
C         18.49170        28.86867         1.39664
C         17.30467        29.61350         1.26333
C         19.84066         4.24160         0.42995
C         21.19157         6.33429         0.76118
C         19.93399         5.58763         1.11716
C         21.20657         7.62424         0.40230
C         19.95776         8.40467         0.22357
C         21.22707        10.69362        -0.27738
C         19.99777         9.87042        -0.13450
C         21.15227        12.01718        -0.56205
C         19.88751        12.71524        -0.79394
C         20.93326        14.93140        -1.11482
C         19.76957        14.11160        -1.08646
C         20.82810        16.29349        -1.00635
C         19.55061        16.91241        -0.89407
C         20.55107        19.02761         0.03620
C         19.44301        18.25691        -0.37297
C         20.37329        20.30506         0.55957
C         19.09083        20.79558         0.88308
C         20.03320        22.82353         2.10073
C         18.93545        22.20801         1.33393
C         20.20932        24.17008         2.13213
C         19.35487        25.09141         1.42034
C         20.57385        27.14918         2.39484
C         19.64379        26.54196         1.44615
C         20.61886        28.51473         2.56970
C         19.61749        29.37665         2.06669
O         10.00497        18.90772        -2.86716
O         10.70506        26.83474         1.56601
O         12.84546        28.03456        -1.35418
O          7.59922        21.85479         0.85449
O         12.11274        17.61776        -3.02413
O         10.33217        12.53704         1.65311
O         19.68705        27.14182         0.11316
O         15.25135        11.81679        -1.69105
O         12.83272        10.66001         1.59851
O         19.79857         8.85607        -1.18675
O         16.53383         5.79982         2.21646
O         12.92084        25.65011        -2.10388
O          5.08733        10.38333        -1.09723
O         17.56286        22.56691         1.77746
O         10.76484        22.81770         0.48002
O          9.36927        15.25498         1.17314
O          8.73759        12.27028        -1.62129
O         18.34252        10.83774         1.49153
O         14.66065         6.20029        -1.05162
O         16.79552         8.37011         2.19205
O          3.73094        15.95963         2.02774
O          1.66709        10.19906         2.22630
O         15.76413        18.91467        -2.96464
O         18.18112        20.94489        -2.00792
O          5.42713         6.13806        -1.27687
O          5.60065        20.80864        -2.01194
H          6.22986        20.29965        -2.56485
O         15.99288        14.33323        -3.28818
H         15.44590        15.02477        -3.73548
O          9.83222         9.85427         1.86209
H          9.97507        10.77029         2.21222
O         15.25481        10.48737         2.09699
H         14.49081        10.20656         2.64707
O         18.16140        23.50297        -1.80683
H         18.61386        22.79857        -2.33044
O         11.35257         8.15759        -1.91424
H         10.87127         7.42434        -2.37025
O          7.44131         4.23031        -2.07554
H          6.66864         4.81056        -2.28631
O          9.98692         5.64568        -2.16652
H          9.16351         5.15877        -2.43070
O          1.73240        14.42837         2.26552
H          2.25273        15.13272         2.72189
O          5.18103        21.20680         1.62966
H          6.10805        21.50612         1.80088
O          7.75618        15.73134        -2.11829
H          7.73273        16.44590        -2.78894
O         12.12087        23.23649        -2.91182
H         12.37842        24.18797        -3.02865
O         10.94086        29.18244         2.39603
H         10.66156        28.26555         2.64793
O          7.04314         8.38149        -1.73977
H          7.42417         9.13901        -2.23214
O         16.74260        20.22265         1.07859
H         16.75682        21.08390         1.58048
O          4.25489        10.60111         2.44102
H          3.46171        10.72480         3.01325
O          6.26204        24.95934        -2.20199
H          6.13923        25.90169        -2.47837
O          6.69665         7.67796         1.83268
H          6.84157         8.58063         2.18747
O          5.27137        27.49949        -1.93717
H          4.44048        27.43489        -2.45421
O         20.02501         5.30217         2.54992
H         19.12838         5.05536         2.86327
O         14.60858        16.65956        -3.60502
H         15.18676        17.34717        -4.01431
O         13.00689        14.30940        -2.78215
H         13.50722        14.86042        -3.42599
O          6.45693        16.76546         1.94165
H          5.63949        16.52242         2.43853
O          1.78758        14.67338        -1.38114
H          1.11824        14.97983        -2.02776
O          5.71868        27.56003         1.69436
H          6.43746        27.91273         2.25956
H          1.47111         2.27237         0.89136
H         -0.67781         3.47095         1.18426
H         -0.79748         5.93706         1.09113
H         -0.84742         7.82341         0.36171
H         -0.93762        10.24409         0.17514
H         -0.99059        12.27008         0.47468
H         -0.98193        14.60462        -0.17790
H         -0.99480        16.58251        -0.21903
H         -1.05077        19.01605        -0.22191
H         -1.04124        20.99214        -0.16230
H         -1.00047        23.41965        -0.11943
H         -0.97488        25.31684         0.17205
H         -0.92651        27.76561         0.27548
H          0.34975        29.90900         0.24296
H          3.88239         2.31678         0.52561
H          2.51792        31.11484         0.15758
H          6.32258         2.37749        -0.06336
H          5.00666        31.07231        -0.08312
H          8.79374         2.45251         0.03112
H          7.48846        30.99034         0.02728
H         11.26328         2.48087         0.18978
H          9.87335        30.94958         0.37793
H         13.67638         2.47852         0.26225
H         12.50023        30.88152         1.20221
H         16.22011         2.49349         0.10296
H         14.94633        30.80689         1.25166
H         18.64265         2.59154        -0.17763
H         17.28376        30.65186         1.62713
H         20.78123         3.72451         0.18702
H         22.13772         5.78052         0.86015
H         22.15865         8.11683         0.15433
H         22.21124        10.21209        -0.18035
H         22.09027        12.58076        -0.66705
H         21.92831        14.46845        -1.13947
H         21.73927        16.90276        -0.94823
H         21.57237        18.65499        -0.11124
H         21.25216        20.92981         0.77264
H         20.75106        22.16317         2.60768
H         21.05712        24.57485         2.70204
H         21.24727        26.51041         2.98285
H         21.39075        28.94227         3.22582
H         19.63269        30.43739         2.35549
