         717
 CSIRO Nanostructure Databank - Neutral Graphene Oxide Data Set
C         22.80438        27.36367        -0.60876
C         22.80737        28.73922        -0.68706
C         22.87575        31.68572        -0.73091
C         22.89061        33.07584        -0.56050
C         23.59233        36.15335        -0.96842
C         23.75055        37.48320        -0.80196
C         23.27656        40.27595         0.33248
C         23.22548        41.64507         0.57986
C         23.11133        44.51045         1.34169
C         23.09223        45.86426         1.22674
C         25.25864        24.53317        -0.46988
C         24.05782        25.20985        -0.49545
C         25.25507        27.33808        -0.64802
C         24.02255        26.62817        -0.57754
C         25.23261        28.76751        -0.62386
C         24.02892        29.47867        -0.66547
C         25.28665        31.65162        -0.38412
C         24.05010        30.94383        -0.60287
C         25.29434        33.06082        -0.11356
C         24.05519        33.75301        -0.20942
C         25.11076        35.70389         0.95477
C         23.91254        35.20251         0.17053
C         24.97976        37.13982         1.24988
C         24.37577        38.03037         0.40528
C         25.42992        40.07656         1.44484
C         24.36568        39.46404         0.72988
C         25.24985        41.42539         1.80985
C         24.24049        42.28719         1.33135
C         25.55499        44.43824         1.57803
C         24.32907        43.74660         1.51383
C         25.59753        45.91237         1.70810
C         24.28974        46.66169         1.50844
C         25.50786        48.74827         1.02147
C         24.34773        48.07605         1.08447
C         27.82596        23.11559        -0.24686
C         27.78803        24.49643        -0.55358
C         26.50330        25.21658        -0.61740
C         27.68941        27.35078        -1.25827
C         26.48163        26.61142        -0.73586
C         27.77418        28.77299        -0.72695
C         26.50074        29.49406        -0.45451
C         27.74999        31.66114        -0.30283
C         26.51816        30.96235        -0.40063
C         27.75185        33.04260         0.10298
C         26.52790        33.70132         0.27687
C         27.79810        35.62663         1.57335
C         26.46019        35.00043         1.01459
C         27.86391        37.18449         1.48757
C         26.85353        38.04902         1.81817
C         27.95217        40.16735         1.23767
C         26.78275        39.47958         1.56208
C         28.06138        41.61947         1.09080
C         27.03241        42.47760         1.62430
C         27.87007        44.52814         0.55262
C         26.81114        43.79198         1.27367
C         28.00703        45.95859         0.78034
C         26.96361        46.63841         1.65522
C         28.06409        48.84487         0.77173
C         26.83566        48.14990         1.30911
C         28.02160        50.15837         0.08681
C         30.26055        23.14536        -0.06944
C         29.02384        22.45673        -0.04405
C         30.25342        24.53588        -0.37861
C         29.01827        25.17847        -0.68670
C         30.27506        27.39063        -0.87285
C         29.01837        26.60777        -1.08165
C         30.21287        28.84538        -0.45107
C         29.01186        29.57871        -1.08262
C         30.21063        31.69478        -0.51049
C         28.98458        31.00234        -0.56774
C         30.26690        33.04936        -0.04037
C         29.03014        33.71787         0.34895
C         30.35577        35.60747         1.25817
C         29.04318        34.98269         0.92464
C         30.38782        37.11215         1.32086
C         29.10790        37.84197         1.01137
C         30.44647        40.05107         0.68512
C         29.12844        39.34596         0.86533
C         30.43591        41.52062         0.39848
C         29.15978        42.24838         0.51643
C         30.41432        44.43998         0.12018
C         29.15818        43.69674         0.20921
C         30.40959        45.85251         0.11627
C         29.20573        46.60611         0.45410
C         30.46672        48.71937         0.18663
C         29.28979        48.04695         0.50287
C         30.47051        50.16095        -0.04099
C         29.17218        50.78265        -0.25171
C         32.74157        20.39289         0.63963
C         31.54956        21.06777         0.45671
C         32.73715        23.18892         0.22606
C         31.50903        22.46082         0.20597
C         32.70932        24.60417        -0.01158
C         31.50736        25.27036        -0.32939
C         32.71035        27.44232        -0.68432
C         31.52491        26.68660        -0.52562
C         32.67235        28.84506        -0.92707
C         31.48280        29.59712        -0.77198
C         32.65928        31.80728        -1.16938
C         31.44382        30.98782        -0.80658
C         32.73160        33.08102        -0.36060
C         31.55757        33.65800         0.13469
C         32.94603        35.63996         1.00252
C         31.65608        34.78609         1.14292
C         32.96499        37.12549         1.30578
C         31.67556        37.89529         1.41879
C         32.95807        40.17327         1.12425
C         31.67509        39.38441         1.22931
C         32.92937        41.62037         0.72320
C         31.66456        42.32785         0.47959
C         32.91177        44.38970         0.06495
C         31.65802        43.69026         0.19503
C         32.88625        45.81507        -0.42234
C         31.64493        46.57782        -0.03761
C         32.94193        48.69475        -0.14575
C         31.68505        47.97131        -0.01709
C         32.96656        50.17685         0.19464
C         31.66213        50.87179        -0.13061
C         32.87463        52.99977        -0.41684
C         31.70610        52.29139        -0.33437
C         35.25919        18.86599         0.59784
C         35.25322        20.32822         0.55822
C         33.98707        21.07348         0.61837
C         35.22804        23.21611         0.57223
C         33.95975        22.47973         0.47394
C         35.24695        24.68243         0.25082
C         33.96121        25.39910         0.00422
C         35.16130        27.37729        -0.96252
C         33.98424        26.75459        -0.62256
C         35.18119        28.78304        -1.44951
C         33.88687        29.56155        -1.35226
C         35.17713        31.66443        -1.06697
C         33.95535        31.01760        -1.13700
C         35.18474        33.10043        -0.81823
C         34.01750        33.74162        -0.32456
C         35.29745        35.78045         0.18188
C         34.10233        35.06982         0.23208
C         35.42284        37.06159         0.81331
C         34.19063        37.89848         0.88977
C         35.44753        40.24407         0.75109
C         34.21469        39.40581         0.83265
C         35.37843        41.56941         0.28303
C         34.16638        42.28580         0.29021
C         35.37478        44.46652         0.42286
C         34.11649        43.69800         0.11107
C         35.36487        45.89089        -0.08067
C         34.18399        46.56699        -0.21363
C         35.40763        48.76982        -0.14956
C         34.13376        48.01609        -0.26284
C         35.37886        50.21675        -0.45353
C         34.20184        50.90916        -0.32756
C         35.36152        53.09006        -0.52107
C         34.16963        52.36406        -0.43738
C         35.45427        54.53442        -0.55666
C         37.68420        18.74146         0.08801
C         36.37703        18.12995         0.41253
C         37.67523        20.25164        -0.18877
C         36.44861        20.97715         0.33561
C         37.74349        23.13847        -0.00425
C         36.52130        22.44153         0.43602
C         37.76879        24.50803        -0.28606
C         36.46386        25.21313        -0.44222
C         37.70784        27.29512        -1.33903
C         36.41869        26.58823        -1.01488
C         37.69023        28.77321        -1.58952
C         36.44733        29.56127        -1.39652
C         37.74487        31.69612        -1.03205
C         36.43958        30.92534        -1.22393
C         37.66593        33.12510        -1.60961
C         36.41141        33.86724        -1.10488
C         37.79690        35.95560        -0.33918
C         36.49074        35.29259        -0.53899
C         37.89255        37.12725         0.41834
C         36.67989        37.56394         1.05942
C         37.93775        40.19001         0.58036
C         36.73028        39.73374         1.06910
C         37.97781        41.49901        -0.16600
C         36.64430        42.25445        -0.09818
C         37.92915        44.43757         0.30832
C         36.64353        43.73995         0.00180
C         37.92376        45.92064         0.16698
C         36.68065        46.54127        -0.44775
C         37.99099        48.69989        -0.50704
C         36.69356        48.02775        -0.17501
C         37.96850        50.17211        -0.71674
C         36.64619        50.89055        -0.80644
C         37.90428        53.10581        -0.31087
C         36.64092        52.38641        -0.75315
C         37.96064        54.50597        -0.93292
C         36.62144        55.19232        -0.77249
C         40.14922        16.08590         1.43072
C         39.02283        16.64053         0.96015
C         40.21569        18.83911         0.60381
C         38.98290        18.03248         0.44872
C         40.16937        20.23931         0.33511
C         38.97761        20.93018         0.17389
C         40.17705        22.98800        -0.57965
C         39.03873        22.43601         0.25676
C         40.17795        24.44303        -0.91495
C         38.94634        25.19292        -0.65668
C         40.29762        27.32373        -1.04323
C         38.96246        26.69652        -0.68298
C         40.30009        28.76335        -1.39142
C         39.01076        29.49372        -1.65616
C         40.29354        31.70690        -1.55116
C         38.97322        30.99522        -1.61322
C         40.31313        33.17943        -1.26856
C         39.00647        33.92231        -1.42027
C         40.28745        36.00352        -0.53280
C         39.00972        35.36818        -0.92961
C         40.30888        37.26571         0.02714
C         39.10192        37.95353         0.43983
C         40.37163        40.13883         0.53277
C         39.13661        39.38147         0.58296
C         40.41146        41.54784         0.44529
C         39.19942        42.30582         0.26322
C         40.41099        44.46473         0.48348
C         39.20302        43.69119         0.31773
C         40.39345        45.87836         0.39672
C         39.21963        46.63653         0.09689
C         40.44468        48.80796         0.03181
C         39.24769        48.02088        -0.09232
C         40.43681        50.20376        -0.16540
C         39.21435        50.94502        -0.46550
C         40.47902        53.09918        -0.55167
C         39.18695        52.31944        -0.47733
C         40.35668        54.56498        -0.15896
C         39.14505        55.26771        -0.35296
C         40.27077        57.35967         0.16844
C         39.11196        56.65581        -0.14640
C         42.67611        16.07725         1.52459
C         41.40658        16.88107         1.67186
C         42.67557        18.79609         0.64090
C         41.44172        18.19278         0.91602
C         42.74861        20.24699         0.44538
C         41.44492        21.00672         0.38256
C         42.74379        23.05880        -0.40276
C         41.47891        22.28946        -0.38831
C         42.73751        24.42966        -0.58180
C         41.51730        25.17717        -0.94352
C         42.77131        27.39272        -0.92231
C         41.50039        26.66858        -0.90458
C         42.78313        28.78542        -1.07298
C         41.54752        29.54272        -1.21466
C         42.82093        31.66528        -1.57342
C         41.53683        30.90706        -1.37710
C         42.78745        33.02207        -0.82811
C         41.49142        33.82528        -1.04449
C         42.80170        35.96391        -0.48082
C         41.54696        35.35624        -1.07013
C         42.85079        37.26043        -0.05545
C         41.59654        37.93604         0.33328
C         42.96627        40.15161         0.80065
C         41.63475        39.39481         0.70507
C         42.88684        41.60864         0.41274
C         41.66637        42.28537         0.47896
C         42.87452        44.43276         0.60441
C         41.65943        43.73870         0.53880
C         42.89023        45.87336         0.91951
C         41.60462        46.65117         0.71175
C         42.83403        48.80727         0.66328
C         41.67265        48.11709         0.44091
C         42.77188        50.30211         0.89235
C         41.60453        50.98826         0.20514
C         42.72406        53.13712         0.78909
C         41.60880        52.35291         0.12436
C         42.84583        54.54306         0.17867
C         41.52332        55.27746         0.16678
C         42.73271        57.43046         0.48191
C         41.49729        56.68450         0.28944
C         43.82475        16.59779         1.06588
C         45.18109        18.62298         0.04152
C         43.88436        17.95707         0.47054
C         45.19701        20.10308        -0.25000
C         43.97137        20.92515        -0.04536
C         45.25315        23.00818        -0.61421
C         43.97104        22.28677        -0.26002
C         45.25330        24.46546        -0.18441
C         43.95867        25.22507        -0.30280
C         45.24233        27.30230        -0.69106
C         44.01319        26.66821        -0.65046
C         45.32975        28.72666        -1.19619
C         44.03781        29.51666        -1.08727
C         45.37195        31.61851        -1.27647
C         44.05615        30.88081        -1.18173
C         45.32846        33.10485        -0.99260
C         44.02412        33.85574        -1.24620
C         45.27287        35.98689        -0.82006
C         44.06939        35.16393        -0.44546
C         45.29450        37.38977        -0.43009
C         44.10346        38.03034        -0.02311
C         45.30915        40.16105        -0.15014
C         44.12850        39.42639         0.16017
C         45.30264        41.61263        -0.11734
C         44.11135        42.31100         0.16951
C         45.24847        44.49029        -0.03322
C         44.10294        43.76343         0.25695
C         45.35807        45.93538         0.25526
C         44.18714        46.62642         0.86649
C         45.31301        48.84991         0.31894
C         44.15607        48.14968         1.03628
C         45.41987        50.32579         0.62383
C         44.07654        51.03053         0.64176
C         45.26718        53.15385         0.52980
C         44.05192        52.40645         0.65139
C         45.32725        54.56038         0.89708
C         43.95694        55.34860         0.84029
C         43.91855        56.81560         0.69158
C         47.66442        18.69355         0.37960
C         46.49104        18.00958         0.35613
C         47.78345        20.10216         0.06175
C         46.52506        20.80361        -0.31741
C         47.77119        23.02596        -0.06710
C         46.48791        22.28284        -0.10805
C         47.75230        24.49905        -0.27566
C         46.52982        25.20073        -0.31963
C         47.75188        27.30074        -0.40209
C         46.50942        26.60978        -0.46484
C         47.85257        28.78993        -0.63031
C         46.49450        29.45186        -0.54846
C         47.76998        31.64013        -0.31637
C         46.48538        30.92927        -0.51403
C         47.67515        33.11311        -0.07566
C         46.49007        33.76803        -0.74181
C         47.80167        35.96754        -0.54457
C         46.57307        35.23540        -0.87760
C         47.77363        37.35879        -0.56536
C         46.51392        38.08266        -0.55421
C         47.74798        40.18762        -0.96415
C         46.49866        39.48716        -0.49762
C         47.71017        41.66938        -0.73392
C         46.52118        42.32036        -0.45825
C         47.65378        44.60045        -0.87666
C         46.42089        43.79632        -0.58330
C         47.68451        46.06453        -0.61448
C         46.46792        46.73843        -0.28854
C         47.51109        48.92055        -0.89096
C         46.37510        48.16844        -0.27182
C         47.49377        50.45698        -0.98454
C         46.38220        51.10672        -0.22778
C         47.63911        53.26710        -0.13968
C         46.43907        52.50061         0.01759
C         47.65790        54.64424         0.17205
C         46.56949        55.28370         0.73316
C         50.24210        20.21883         0.43181
C         48.97716        20.80927         0.07696
C         50.29457        22.99129        -0.20873
C         49.01086        22.23290        -0.45968
C         50.24816        24.45444        -0.44800
C         48.96974        25.19369        -0.26904
C         50.21083        27.34121         0.08518
C         48.95968        26.60692        -0.25677
C         50.24552        28.81664         0.14429
C         48.89887        29.48911         0.26993
C         50.15842        31.70256         0.22044
C         48.94055        30.97896        -0.01140
C         50.18515        33.10907         0.13259
C         48.99135        33.83991        -0.16797
C         50.19008        35.98562         0.09695
C         49.00093        35.24107        -0.22810
C         50.15772        37.38865         0.05862
C         48.98446        38.10488        -0.32221
C         50.21060        40.24130        -0.27904
C         49.00428        39.50728        -0.45715
C         50.33512        41.66401        -0.78492
C         48.98114        42.37656        -1.02179
C         50.19108        44.61492        -0.68426
C         48.95404        43.87257        -1.00415
C         50.20441        46.08315        -1.03272
C         48.87834        46.75088        -0.75278
C         50.12532        48.97396        -0.89683
C         48.84409        48.20924        -0.93765
C         50.08350        50.36819        -0.92340
C         48.83883        51.05666        -0.43229
C         50.18753        53.07563        -0.02745
C         48.89852        52.59442        -0.65837
C         51.41120        20.92197         0.41161
C         52.76294        23.04491         0.11824
C         51.47328        22.34132         0.10093
C         52.81780        24.45353        -0.33494
C         51.53126        25.21190        -0.45994
C         52.77876        27.41759         0.06354
C         51.52396        26.62863         0.02874
C         52.71938        28.81855         0.29611
C         51.42068        29.49648         0.31808
C         52.65681        31.69982         0.61264
C         51.35404        30.94858         0.76198
C         52.63782        33.12638         0.57835
C         51.41222        33.84277         0.37362
C         52.61610        35.97698         0.63699
C         51.39887        35.25743         0.41322
C         52.56798        37.43893         0.88528
C         51.29753        38.18012         0.54926
C         52.57539        40.35399         0.49677
C         51.34205        39.62853         0.26201
C         52.54930        41.88197         0.66339
C         51.16149        42.51463         0.26463
C         52.58035        44.61000        -0.30495
C         51.29672        43.94444        -0.25145
C         52.59526        46.09418        -0.24569
C         51.27691        46.84362        -0.23842
C         52.59765        48.98072        -0.82200
C         51.35023        48.27577        -0.74096
C         52.61608        50.38601        -1.03893
C         51.33466        51.19096        -1.17169
C         51.32340        52.41218        -0.27099
C         55.17507        23.17630         0.59436
C         53.94596        22.45831         0.51789
C         55.27963        24.53009         0.33395
C         54.08626        25.25563        -0.15693
C         55.20188        27.45687         0.25697
C         54.01218        26.73739         0.03640
C         55.17376        28.85825         0.49433
C         53.92365        29.54670         0.51231
C         55.08149        31.73926         0.91438
C         53.87404        31.00369         0.67913
C         55.07369        33.14092         0.92268
C         53.86141        33.85985         0.67401
C         55.09721        36.05549         0.46024
C         53.83368        35.29441         0.65186
C         55.07742        37.58521         0.39754
C         53.85980        38.22365         1.08737
C         55.00728        40.53791         0.97636
C         53.76250        39.69910         0.71164
C         54.99306        41.82938         0.16169
C         53.80225        42.50059         0.03127
C         54.98502        44.55680        -0.92381
C         53.75450        43.89332        -0.39423
C         55.00457        46.07560        -1.17383
C         53.85970        46.81755        -0.50974
C         55.06646        48.94343        -0.86408
C         53.83283        48.27936        -0.75600
C         55.05461        50.33288        -1.10706
C         53.84776        51.02968        -1.20525
C         57.75051        24.64241         0.58261
C         56.52824        25.26387         0.38801
C         57.76440        27.50690         0.47946
C         56.48606        26.72666         0.17595
C         57.62383        28.89915         0.93631
C         56.41074        29.54815         0.85899
C         57.60121        31.73051         1.52866
C         56.30749        30.98001         1.26401
C         57.62249        33.22264         1.40863
C         56.31127        33.92287         1.16949
C         57.67077        36.03376         0.79179
C         56.38465        35.31692         0.63169
C         57.64517        37.50133         0.97361
C         56.33353        38.23686         0.99790
C         57.64229        40.37713         0.49258
C         56.34952        39.74967         0.92614
C         57.56781        41.63429        -0.32571
C         56.25583        42.35341        -0.44381
C         57.60245        44.54568        -1.09616
C         56.26833        43.78632        -0.94247
C         57.50977        46.03042        -0.71889
C         56.31661        46.75722        -0.82224
C         57.52586        48.83386        -0.42797
C         56.31575        48.17420        -0.70379
C         58.96206        25.36692         0.75016
C         60.17932        27.49225         1.11876
C         58.97982        26.74364         0.81229
C         60.13116        28.81168         1.39361
C         58.82825        29.52871         1.63884
C         59.95359        31.67728         0.82377
C         58.87066        31.00798         1.30805
C         59.95228        33.10629         0.62806
C         58.86763        33.88109         0.93901
C         60.10515        36.09043         0.89284
C         58.86238        35.34406         0.86300
C         60.12661        37.44990         0.79974
C         58.91491        38.23626         0.75367
C         60.10362        40.37869         0.28912
C         58.90059        39.57979         0.42121
C         60.08453        41.68029        -0.07017
C         58.88212        42.35902        -0.68599
C         60.01722        44.64855        -0.40131
C         58.73744        43.85616        -0.28545
C         59.98404        45.99201        -0.44112
C         58.72263        46.72282        -0.47760
C         58.71238        48.11720        -0.31308
O         37.76437        45.31914         1.49038
O         36.17405        35.03118        -1.95830
O         28.15352        44.07081        -0.79904
O         39.55423        31.53104        -2.82416
O         31.55263        38.81115         2.56094
O         51.62757        37.79765         1.95383
O         56.90870        33.87470         2.50341
O         50.33516        42.55675         1.38609
O         46.10590        30.12707         0.68443
O         27.66298        48.96136         2.19650
O         44.52365        24.83612         1.01410
O         48.00128        48.42127        -2.17491
O         36.63758        51.69990        -2.03918
O         36.76803        38.63877         1.94490
O         27.35895        28.90440         0.64358
O         55.81245        35.48651        -0.71782
O         50.81032        26.73802         1.31167
O         26.23229        41.96076         2.65863
O         34.39070        29.05968        -2.65034
O         34.67010        25.47596         1.32462
O         45.86853        20.37592        -1.54933
O         38.44999        18.05022        -0.94869
O         56.74086        41.42895        -1.51499
O         40.70481        22.14309        -1.63151
O         24.83758        46.41204         2.85731
O         53.68585        24.74743        -1.48071
O         37.66495        27.77705        -2.68536
O         33.99920        38.59905        -0.39862
O         25.66299        37.55049         2.39688
O         56.86130        37.74628         2.24492
O         28.94254        38.43996        -0.30590
O         36.51820        43.11509        -1.30303
O         44.36442        17.89632        -0.93489
O         39.79589        28.99625        -2.76990
O         47.07884        22.65054         1.17406
O         39.01559        35.02075        -2.38880
O         38.09091        49.23951        -1.86269
O         57.33031        27.24693        -0.90062
O         49.01991        43.13068        -2.29149
O         57.23299        40.40225         1.89156
O         40.85303        24.72007        -2.17791
O         30.58381        40.50821        -0.69763
O         29.87663        26.98699        -2.23077
O         33.29531        36.16640         2.34059
O         41.59466        38.36333         1.75777
O         53.50513        46.49520         0.87144
O         55.45091        43.87235        -2.15955
O         36.14899        48.43436         1.11652
O         33.06170        41.15314         2.18130
O         45.19647        46.08431         1.78369
O         42.16696        20.98202         1.62852
O         46.72692        44.27843        -1.96307
O         36.21504        25.40347        -1.88315
O         56.78200        31.24755         2.64098
O         42.08914        46.28742         2.06443
O         50.87201        24.92790        -1.72871
O         45.90965        35.73234        -2.10810
O         25.45079        34.87235         2.09720
O         36.02654        22.91786         1.76919
O         30.26075        36.31352         2.53761
O         54.77147        46.29337        -2.58948
H         55.12885        45.50683        -3.06435
O         48.82288        50.79182         0.99148
H         47.88984        50.79987         1.32746
O         42.51529        50.45218         2.33868
H         43.08872        49.78856         2.79719
O         48.94398        52.91567        -2.06245
H         48.28021        52.33583        -2.51617
O         37.97941        31.79448         0.39986
H         37.11791        31.85402         0.86378
O         44.31959        48.38514         2.48192
H         44.78686        47.58414         2.82877
O         51.10958        30.87528         2.21322
H         50.32305        30.29204         2.34127
O         32.47593        32.20974        -2.57005
H         32.55994        31.40628        -3.12730
O         42.95011        31.85720        -3.00862
H         42.23267        32.45635        -3.30921
O         42.37604        53.26933         2.18212
H         42.37337        52.35648         2.56469
O         39.40255        22.78220         1.64075
H         38.61350        22.63529         2.20689
O         33.08024        50.22527         1.65542
H         33.86752        49.69880         1.91377
O         41.61742        35.73531        -2.48229
H         40.74248        35.49729        -2.88069
O         44.49003        54.90144         2.06901
O         38.24513        54.33211        -2.35228
H         38.01586        55.16224        -2.81968
O         37.45877        32.96965        -3.01537
H         37.39161        33.87272        -3.39757
O         38.75162        27.12715         0.72365
H         39.41066        26.67114         1.29065
O         30.05364        28.79443         0.98247
H         29.87284        29.69983         1.31316
O         45.36633        23.04455        -2.05937
H         45.47189        22.11150        -2.36784
O         31.78349        34.08179         2.40051
H         31.80517        34.77166         3.10310
O         43.30457        40.21279         2.22332
H         42.92222        39.40302         2.63668
O         58.60602        29.38164         3.07037
H         57.85067        29.97897         3.30703
O         51.30056        51.66296        -2.55233
H         51.33880        50.87906        -3.13924
O         36.85271        46.34791        -1.87727
H         36.01667        46.57801        -2.33503
O         50.81279        46.91249         1.12899
H         51.60847        46.97947         1.70374
O         48.89828        22.13302        -1.91655
H         49.77788        21.90012        -2.28172
O         45.64997        28.63330        -2.61977
H         44.86471        28.28379        -3.09224
O         55.01565        37.97020        -0.98867
H         55.44982        37.25667        -1.51213
O         54.89066        40.94941         2.35884
H         54.87653        40.12843         2.90125
O         32.81771        45.70117        -1.89876
H         31.98825        45.22377        -2.11775
O         52.65677        42.12458         2.07727
H         51.72067        42.31408         2.36992
O         44.27880        34.82213         0.96742
H         44.21426        35.64485         1.49813
O         40.83224        53.15339        -1.98972
H         40.02308        53.48548        -2.45614
O         43.25360        54.39241        -1.20582
H         42.50673        53.96423        -1.70032
O         58.33382        43.84397         1.10429
H         58.46712        44.73955         1.47941
O         37.58631        20.41412        -1.63905
H         38.14438        19.70285        -2.03281
O         27.49654        46.53281         2.99313
H         26.79448        46.84914         3.60422
O         41.34165        17.27377         3.08567
H         42.06864        17.90964         3.25619
O         27.85142        35.25100         2.95643
H         26.92992        35.27748         3.30252
O         50.52690        46.24672        -2.43678
H         49.84359        45.77786        -2.96203
O         59.10058        42.24981        -2.10079
H         58.22483        42.06979        -2.51824
O         29.18027        29.64621        -2.50632
H         29.17196        28.72091        -2.85644
O         35.32393        44.53509         1.87583
H         36.12616        45.02494         2.18296
O         47.32300        33.22505         1.36710
H         48.05244        32.81199         1.87877
O         48.51804        29.35745         1.66442
H         47.58059        29.67217         1.73533
O         48.33072        28.98311        -1.98538
H         47.58086        28.79527        -2.59902
O         45.98747        50.41999         2.00258
H         45.48444        49.76524         2.55296
O         27.45076        27.47978        -2.69072
H         27.61542        26.60946        -3.11068
O         22.78522        35.29446         1.09098
H         23.05612        34.84224         1.91914
O         38.21830        41.17328        -1.56298
H         37.82570        41.90356        -2.09573
O         57.95934        44.53447        -2.49029
H         57.12307        44.46889        -3.00444
O         54.13452        38.20433         2.50840
H         53.26440        38.29672         2.96285
O         42.84006        32.65084         0.56098
H         43.27652        33.37552         1.07309
O         47.78869        40.03099        -2.42876
H         47.20317        40.71103        -2.82488
O         47.37417        50.81645        -2.38245
H         47.70142        50.03428        -2.89493
O         51.06686        41.61835        -2.00779
H         50.62833        42.24902        -2.63030
O         37.76904        53.33324         1.12158
H         37.90155        52.48666         1.59688
O         43.86280        34.15659        -2.63650
H         44.60800        34.74893        -2.90275
O         45.75428        31.54267        -2.68513
H         44.95841        31.81677        -3.20315
H         21.85066        26.81779        -0.57259
H         21.84613        29.26943        -0.71415
H         21.92001        31.19151        -0.94774
H         21.95308        33.64341        -0.63780
H         23.11936        35.75259        -1.87616
H         23.44312        38.18329        -1.59230
H         22.45809        39.81027        -0.23399
H         22.39230        42.22532         0.15999
H         22.17335        43.95605         1.19747
H         22.16480        46.38766         0.95195
H         25.24114        23.43902        -0.38210
H         23.11201        24.65242        -0.43621
H         25.49016        49.81548         0.75752
H         23.40097        48.58054         0.83978
H         26.89444        22.54183        -0.16204
H         27.06144        50.67525        -0.04919
H         28.99290        21.38256         0.17843
H         29.12553        51.78846        -0.69209
H         32.70440        19.30612         0.78727
H         30.61975        20.48480         0.47600
H         32.82034        54.09111        -0.53152
H         30.75988        52.84663        -0.40110
H         34.32302        18.33763         0.82161
H         34.53261        55.12582        -0.45127
H         36.32251        17.03384         0.47486
H         36.58585        56.28801        -0.86699
H         40.15021        15.03220         1.74884
H         38.12294        16.02243         0.82646
H         40.23720        58.45227         0.28343
H         38.17450        57.21430        -0.26904
H         42.66240        15.04728         1.91342
H         42.67713        58.52903         0.46529
H         44.72715        15.97115         1.01064
H         44.82253        57.40435         0.90107
H         48.58031        18.13606         0.62281
H         46.50586        16.92846         0.55500
H         48.59082        55.20790         0.03154
H         46.64180        56.32941         1.05938
H         50.27208        19.15919         0.72292
H         50.18705        53.95468         0.63484
H         52.33933        20.39616         0.67159
H         52.27322        52.73890         0.17909
H         56.06203        22.61591         0.92104
H         53.96719        21.40416         0.82657
H         55.99764        50.88284        -1.22984
H         53.86470        52.11001        -1.40728
H         57.79601        23.54774         0.66647
H         57.54354        49.92538        -0.30565
H         59.88919        24.80622         0.93701
H         61.14149        26.95792         1.10152
H         61.05891        29.34587         1.64433
H         60.88595        31.13797         0.60533
H         60.87220        33.57049         0.24704
H         61.05126        35.53652         0.96319
H         61.09655        37.96563         0.77127
H         61.06435        39.92523         0.57509
H         61.04120        42.22083        -0.10441
H         60.98471        44.12864        -0.37890
H         60.91612        46.57653        -0.45861
H         59.65623        48.64443        -0.11410
