         252
 CSIRO Nanostructure Databank - Neutral Graphene Oxide Data Set
C         30.29311        31.57267         1.17816
C         30.46796        32.77515         1.47448
C         30.37185        35.88746         1.34092
C         30.39385        37.11415         1.16100
C         30.31323        40.25277         0.35281
C         30.34737        41.27479        -0.39503
C         32.74099        28.92221         0.18826
C         31.61920        29.40123         0.41633
C         32.74396        31.42241         1.21159
C         31.43125        30.89874         0.42149
C         32.78397        32.95992         1.32875
C         31.58577        33.64530         1.60388
C         32.78318        35.92035         1.59900
C         31.48960        35.09522         1.99691
C         32.70064        37.33326         1.08428
C         31.50651        38.00417         0.93046
C         32.74200        40.32335         1.02406
C         31.43480        39.49206         0.91143
C         32.87504        41.78483         0.76377
C         31.02315        42.48350        -0.34493
C         32.87268        43.84354        -1.23411
C         31.74351        43.31882        -1.23236
C         35.59408        27.45009        -0.43135
C         35.31394        28.83890        -0.13091
C         34.07662        29.46709         0.30424
C         35.32916        31.48538         1.01049
C         34.02573        30.79520         0.68639
C         35.26292        33.00001         1.06009
C         34.02643        33.65580         1.27349
C         35.21322        35.81513         0.67924
C         34.04948        35.14477         1.38429
C         35.24747        37.31581         0.83755
C         33.95307        38.03537         0.69481
C         35.32161        40.25616         0.82810
C         33.98111        39.53723         0.69227
C         35.29922        41.66880         0.25410
C         34.03765        42.40817         0.33311
C         35.28273        44.46798        -0.52208
C         33.95952        43.87859        -0.13624
C         35.58808        45.74852        -0.86988
C         37.98750        27.55284        -0.73285
C         36.62851        26.87154        -0.78943
C         37.63552        29.01728        -1.11537
C         36.46063        29.58803        -0.31268
C         37.73578        31.74957         0.14048
C         36.44443        31.01116         0.07549
C         37.79748        32.94923         1.07544
C         36.48368        33.70783         1.06882
C         37.68220        35.86478         1.23975
C         36.52002        35.13867         1.03930
C         37.67762        37.32727         1.22827
C         36.42220        37.99690         0.82941
C         37.78960        40.09654         0.27760
C         36.45504        39.38430         0.23441
C         37.74482        41.44862        -0.39552
C         36.48745        42.25899        -0.09228
C         37.88565        44.37424        -0.75560
C         36.55998        43.72994        -0.30025
C         37.90282        45.73682        -1.37561
C         36.66909        46.33020        -1.27351
C         40.33091        25.09642        -2.40733
C         39.32528        25.70207        -1.93391
C         40.26701        27.81519        -1.91594
C         39.10248        27.03719        -1.61546
C         40.19407        29.29611        -1.67074
C         38.91994        29.88620        -1.12512
C         40.21951        31.92930        -0.27764
C         39.03838        30.98302        -0.06490
C         40.27167        33.15220         0.56597
C         38.95421        33.87856         0.64755
C         40.25016        35.93835         1.26667
C         38.98076        35.14319         1.51020
C         40.25667        37.34556         1.15917
C         38.98973        38.10126         1.18253
C         40.25897        40.14320         0.43168
C         38.97451        39.48115         0.60699
C         40.25696        41.51350        -0.05195
C         39.04901        42.19783        -0.32095
C         40.31857        44.08824        -1.18586
C         39.08714        43.50426        -0.84259
C         40.35807        45.30099        -2.02122
C         39.11820        46.23218        -2.07015
C         40.48132        48.29969        -2.08443
C         39.39352        47.66658        -2.25065
C         42.86527        25.31177        -2.88000
C         41.54699        25.77741        -2.57336
C         42.76337        28.01037        -2.41434
C         41.49037        27.20577        -2.33581
C         42.80501        29.42333        -1.85739
C         41.49399        30.06578        -1.55691
C         42.79639        32.03633        -0.52365
C         41.47425        31.41445        -0.89435
C         42.75608        33.26409         0.32988
C         41.45007        33.83764         0.76719
C         42.72796        35.92580         1.52431
C         41.44988        35.21191         1.18279
C         42.72122        37.36525         1.06763
C         41.49337        38.04599         0.96014
C         42.73941        40.16071         0.65449
C         41.47188        39.46834         0.68679
C         42.70648        41.62235         0.39807
C         41.47939        42.22420        -0.16998
C         42.75733        44.39573        -0.59647
C         41.52112        43.51239        -0.72420
C         42.82409        45.49945        -1.63546
C         41.69487        45.79937        -2.38582
C         42.80580        48.33032        -2.01334
C         41.66345        48.98184        -2.18514
C         43.95665        25.87770        -2.69855
C         45.33290        27.96486        -2.10873
C         44.12178        27.33146        -2.63478
C         45.39600        29.49925        -1.78496
C         44.06203        30.02216        -1.27675
C         45.28396        31.84900        -0.09415
C         44.04931        31.22441        -0.61250
C         45.23852        33.04341         0.60091
C         43.96538        33.67103         1.14258
C         45.19390        35.90337         1.24338
C         44.00959        35.19172         1.20082
C         45.18711        37.34084         1.15585
C         43.97021        38.05276         0.99792
C         45.25574        40.19020         0.65015
C         43.94672        39.48758         0.81340
C         45.26490        41.68434         0.61048
C         43.98114        42.37719         0.26233
C         45.31508        44.38008        -0.58603
C         44.04308        43.54813        -0.69361
C         45.24283        45.70658        -1.14275
C         44.02735        46.30204        -1.63557
C         43.93929        47.67524        -1.99259
C         47.72663        27.86173        -1.56992
C         46.57991        27.47925        -2.03502
C         47.78542        29.08400        -0.91214
C         46.59240        29.91227        -0.91817
C         47.75602        31.69794         0.41300
C         46.55750        31.12688        -0.22297
C         47.75721        32.98541         0.90853
C         46.46944        33.66778         1.11670
C         47.78016        35.84857         1.58450
C         46.46654        35.15067         1.45900
C         47.73376        37.33846         1.71099
C         46.45544        38.07236         1.41854
C         47.85372        40.23028         1.02948
C         46.55420        39.48762         0.92194
C         47.90110        41.76047         0.80828
C         46.55022        42.42919         0.47586
C         47.80833        44.37613        -0.51000
C         46.53771        43.76210        -0.22097
C         47.65093        45.70879        -0.97240
C         46.54173        46.25889        -1.18229
C         50.33353        29.17546        -0.63432
C         48.98541        29.50851        -0.18605
C         50.30153        31.58999         0.70178
C         49.00482        30.88888         0.49453
C         50.25686        32.84529         1.52329
C         48.94892        33.62542         1.55750
C         50.22170        35.82063         2.07992
C         48.93637        35.12584         1.73884
C         50.29617        37.35390         1.95982
C         49.02831        38.12675         1.71266
C         50.35138        40.25767         1.02185
C         49.02773        39.55290         1.22185
C         50.34478        41.54872         0.23617
C         48.98885        42.09348        -0.22953
C         50.28983        43.94230        -0.88608
C         49.02314        43.63017        -0.49093
C         51.38352        29.80556        -0.43617
C         52.62056        31.96437         0.40393
C         51.49832        31.10374         0.16048
C         52.60122        33.09853         0.90984
C         51.62421        33.51228         1.96600
C         52.63795        35.86956         1.77479
C         51.50643        35.00664         2.14294
C         52.68873        37.05289         1.45068
C         51.64192        38.06109         1.65864
C         52.70574        40.07723         0.34327
C         51.65232        39.46018         1.16363
C         52.63547        41.11809        -0.33140
C         51.59941        42.07183        -0.50858
C         51.43073        43.33682        -1.01268
O         46.87984        37.84386         2.80234
O         36.87222        31.92582        -1.00598
O         49.39703        32.80344         2.69234
O         51.95440        39.14149         2.54219
O         39.29728        30.13482        -2.49242
O         43.20180        42.51788         1.48933
O         33.79197        38.80614        -0.55543
O         31.71422        42.58633         0.94999
O         42.14717        30.27328        -2.86100
O         43.45210        28.01471        -3.71927
O         40.56560        32.28702        -1.65659
O         49.63522        38.02187         3.05418
O         33.76975        35.75912         2.67813
O         50.52723        41.55909         1.66685
O         46.03998        39.60255        -0.45976
O         37.45350        44.38749         0.66138
O         46.31317        34.13849         2.51782
O         42.98015        33.37593        -1.10699
O         48.84233        29.62436         1.23926
O         45.81001        42.39452         1.76445
O         38.25856        37.94284         2.44983
O         39.45632        45.35365        -3.19092
O         31.93616        39.98956         2.19658
O         50.84753        35.38828         3.35446
O         31.33729        35.13276         3.39739
H         31.39165        36.06007         3.70683
O         31.44092        31.37668        -0.88593
H         30.68247        31.01004        -1.38420
O         34.98162        35.59440        -0.73732
H         35.64942        36.09777        -1.24970
O         35.61223        40.38413         2.23532
H         34.98538        41.01759         2.64274
O         39.02145        34.77830         2.92156
H         39.04762        35.61004         3.44398
O         43.76905        33.14352         2.47607
H         44.54941        33.42419         3.01206
O         48.69011        41.43598        -1.46792
H         47.83849        41.76515        -1.82370
O         52.00682        32.94572         3.20058
H         51.59674        33.46858         3.92336
O         38.66671        34.33803        -0.69664
H         39.03135        33.69909        -1.34913
O         38.46227        27.51189         0.60466
H         38.62247        26.58091         0.86304
O         48.30476        42.37435         2.03594
H         47.52867        42.38647         2.63984
O         35.66078        31.02510         2.35660
H         36.50722        31.46256         2.63281
O         36.19643        39.12402        -1.16697
H         36.39571        39.94202        -1.68826
O         39.31779        30.27357         1.16780
H         39.05239        30.85370         1.92352
O         37.61610        41.20747        -1.86543
H         38.43905        40.76744        -2.17102
O         42.71515        36.00595         3.00888
H         43.53459        36.46868         3.28906
O         32.60143        30.92921         2.55780
H         33.49259        30.91306         2.97215
O         38.06166        32.40326         2.39949
H         38.35185        33.16150         2.97571
O         41.77659        46.45600        -3.55223
H         40.87730        46.45187        -3.96124
O         42.69002        45.02796         0.69428
H         42.73530        44.31833         1.38116
O         44.08060        42.93905        -2.01424
H         44.07546        43.65778        -2.68320
O         37.16668        28.92203        -2.46969
H         37.17043        29.81895        -2.86659
O         45.58203        30.14322        -3.06553
H         44.80162        29.93565        -3.62835
O         33.42335        44.69479         0.88532
H         32.57719        44.28978         1.18973
