         341
 CSIRO Nanostructure Databank - Neutral Graphene Oxide Data Set
C          1.21723         3.43333        -0.26631
C          0.02130         4.12748        -0.40198
C          1.16342         6.24959         0.01663
C         -0.01144         5.51884        -0.27175
C          1.14942         7.71476         0.12822
C         -0.05086         8.43961         0.09790
C          1.13264        10.57398         0.03790
C         -0.06137         9.83363         0.06948
C          1.13430        12.02790        -0.07215
C         -0.05012        12.77456        -0.19427
C          1.18329        14.86356        -0.39849
C         -0.02389        14.16148        -0.37123
C          1.27462        16.32870        -0.78812
C         -0.00586        17.12302        -0.72647
C          1.08027        19.15771         0.24976
C         -0.07078        18.41320        -0.37589
C          1.12873        20.66111        -0.00352
C         -0.03888        21.40965        -0.14306
C          1.12806        23.56983        -0.08346
C         -0.03480        22.82355        -0.23711
C          1.17517        25.00469        -0.09421
C         -0.00705        25.80789        -0.36538
C          1.16567        27.90116         0.34256
C         -0.01228        27.14988        -0.21905
C          1.34584        29.27160        -0.28020
C          3.65903         3.43717         0.10442
C          2.41937         4.13609         0.00455
C          3.61754         6.27614         0.60400
C          2.38107         5.55263         0.13763
C          3.63140         7.74541         0.26435
C          2.37814         8.43895         0.18743
C          3.61367        10.57595         0.09815
C          2.37014         9.86364         0.10328
C          3.61188        12.00353         0.02703
C          2.37827        12.72692        -0.07548
C          3.64705        14.85357        -0.09336
C          2.39400        14.14730        -0.21676
C          3.63645        16.30969         0.01140
C          2.44407        17.03117        -0.12962
C          3.58085        19.19269         0.14711
C          2.40890        18.46007         0.02833
C          3.59121        20.63642         0.11715
C          2.38043        21.34653         0.07933
C          3.63561        23.56115         0.04746
C          2.36651        22.83262         0.37922
C          3.64934        24.94047         0.08960
C          2.39890        25.67666         0.12080
C          3.66267        27.78246         0.29030
C          2.45411        27.10468         0.24261
C          3.63584        29.25663         0.62240
C          2.51309        29.91429        -0.16382
C          6.12127         3.42934         0.11183
C          4.88932         4.11630         0.22449
C          6.12052         6.22695         0.31220
C          4.90911         5.55133         0.30880
C          6.12370         7.69093        -0.07648
C          4.83337         8.43241         0.19680
C          6.08895        10.58507         0.12457
C          4.84517         9.86535         0.13522
C          6.07834        11.98674         0.07664
C          4.84786        12.70722         0.04327
C          6.07493        14.85134         0.53856
C          4.83360        14.14153         0.06447
C          6.08929        16.32306         0.22199
C          4.87985        17.00332         0.19611
C          6.05266        19.17168        -0.23742
C          4.88301        18.49125         0.42927
C          6.04406        20.64804        -0.19278
C          4.86234        21.33196        -0.03057
C          6.12484        23.49214         0.20213
C          4.87225        22.80991        -0.36570
C          6.11760        24.97676        -0.08278
C          4.89912        25.68780        -0.01082
C          6.13797        27.84081        -0.11041
C          4.91591        27.11029         0.04734
C          6.15827        29.28240         0.21812
C          4.96850        29.92281         0.49586
C          8.54185         3.28215        -0.00250
C          7.36084         4.07500         0.26462
C          8.55185         6.29823         0.64982
C          7.36216         5.51881         0.45008
C          8.56423         7.74726         0.52789
C          7.36218         8.45759         0.30558
C          8.58218        10.58840         0.42790
C          7.35181         9.86218         0.25770
C          8.59770        12.00180         0.32285
C          7.37275        12.71848        -0.17564
C          8.55366        14.86822         0.31593
C          7.36034        14.16592         0.20955
C          8.55601        16.32697         0.27423
C          7.34867        17.00229         0.12514
C          8.62706        19.13688        -0.34112
C          7.34972        18.41216        -0.31618
C          8.62911        20.58036        -0.62675
C          7.30365        21.35208        -0.52002
C          8.57804        23.45699        -0.36661
C          7.38596        22.79516        -0.25564
C          8.56046        24.92706        -0.54628
C          7.30107        25.66829        -0.33622
C          8.57503        27.72320        -0.71011
C          7.31341        27.09094        -0.42155
C          8.61757        29.75677        -0.05583
C          7.37337        30.03275         0.50636
C         11.10460         3.25313         0.15826
C          9.78983         3.59451         0.53144
C         11.04977         6.24722         0.87364
C          9.75450         5.67671         1.04439
C         11.04269         7.73108         0.99231
C          9.77390         8.47281         0.76143
C         11.06132        10.64522         1.02765
C          9.79183         9.87006         0.69436
C         11.06002        12.06989         0.56120
C          9.80759        12.75136         0.44020
C         11.04592        14.90897         0.74290
C          9.79260        14.16352         0.37996
C         11.02584        16.35919         0.32702
C          9.81566        17.03729         0.18513
C         11.06879        19.18531        -0.05273
C          9.81253        18.46753        -0.07176
C         11.08380        20.63264        -0.20184
C          9.88014        21.33293        -0.42702
C         11.06635        23.47987        -0.32666
C          9.86135        22.76380        -0.43522
C         11.06395        24.95137        -0.00193
C          9.85517        25.67179        -0.52764
C         11.04587        27.86959        -0.29102
C          9.83291        27.14765        -0.44471
C         11.08377        29.29144        -0.00278
C          9.93121        30.06764         0.35061
C         13.52223         3.44248         0.23586
C         12.25865         4.04880         0.44764
C         13.48406         6.22014         0.45400
C         12.21347         5.48505         0.73103
C         13.51437         7.71346         0.39184
C         12.32737         8.47969         0.84779
C         13.46654        10.57414         0.19632
C         12.31084         9.92335         0.60011
C         13.48673        12.01140         0.10209
C         12.27367        12.73858         0.30042
C         13.46185        14.89046         0.11377
C         12.29060        14.18848         0.28058
C         13.49965        16.32911         0.26438
C         12.27487        17.05721         0.27948
C         13.50564        19.23262         0.38463
C         12.25484        18.48668         0.15505
C         13.54999        20.67174         0.05116
C         12.31675        21.34781        -0.17101
C         13.53274        23.49163        -0.35709
C         12.32353        22.78894        -0.30310
C         13.55682        24.95581        -0.70945
C         12.30812        25.71196        -0.35545
C         13.56489        27.80261        -0.26888
C         12.29737        27.10855        -0.31815
C         13.57369        29.22165        -0.04213
C         12.35261        29.90657         0.13033
C         16.02200         3.41673         0.22373
C         14.77388         4.11977         0.34586
C         16.01721         6.27541         0.66775
C         14.76931         5.51497         0.50512
C         16.05350         7.77705         0.42238
C         14.77148         8.48743         0.25209
C         15.90696        10.52376        -0.58289
C         14.71310         9.82902         0.02027
C         15.90377        12.01474        -0.36804
C         14.72133        12.69611        -0.18207
C         15.97611        14.82654         0.20437
C         14.71255        14.19848        -0.38843
C         15.97403        16.33086         0.06596
C         14.76622        17.00621         0.24961
C         16.11750        19.17993         0.46805
C         14.78392        18.46354         0.50134
C         16.01704        20.65622         0.13352
C         14.77913        21.33474        -0.04624
C         16.04464        23.51217        -0.15679
C         14.81792        22.74363        -0.59026
C         16.03355        24.92319        -0.06802
C         14.80950        25.67605        -0.27061
C         16.11799        27.78537        -0.24652
C         14.78788        27.06622        -0.22410
C         16.04536        29.25776         0.09700
C         14.80628        29.91483         0.11868
C         18.48670         3.40094         0.05651
C         17.25567         4.06858         0.28996
C         18.58738         6.28762         0.28452
C         17.30539         5.51473         0.59767
C         18.49392         7.71221        -0.11148
C         17.30317         8.43917        -0.04021
C         18.42561        10.57855        -0.56203
C         17.24400         9.84039        -0.34887
C         18.43698        12.00299        -0.60358
C         17.14134        12.74984        -0.81755
C         18.39726        14.87774        -0.48860
C         17.21252        14.17436        -0.34514
C         18.38239        16.33586        -0.43961
C         17.20391        17.02184        -0.20042
C         18.46965        19.22024        -0.25684
C         17.14084        18.51855        -0.45730
C         18.47939        20.60286         0.06275
C         17.22598        21.34237         0.07968
C         18.43178        23.47737         0.40730
C         17.23784        22.79417         0.08972
C         18.41672        24.88406         0.51987
C         17.23274        25.59977         0.30150
C         18.50227        27.78366         0.48390
C         17.16886        27.07894         0.61198
C         18.50084        29.20310         0.36648
C         17.25595        29.92011         0.29893
C         19.68523         4.09688        -0.13307
C         20.95442         6.20378        -0.48824
C         19.75573         5.49712        -0.14762
C         20.95782         7.55568        -0.66757
C         19.69436         8.32046        -0.70381
C         20.92712        10.64042        -0.81626
C         19.68449         9.86046        -0.85140
C         20.89589        11.99061        -0.69961
C         19.64953        12.73404        -0.67757
C         20.83463        14.94576        -0.89156
C         19.63667        14.16539        -0.72540
C         20.83234        16.30328        -0.97415
C         19.56443        17.10681        -0.99747
C         20.88059        19.18236        -0.19368
C         19.66643        18.51464        -0.42950
C         20.89311        20.53099         0.17409
C         19.70666        21.27162         0.26383
C         20.86880        23.52787         0.12588
C         19.72002        22.72365         0.70877
C         20.86552        24.86350         0.21587
C         19.71165        25.58913         0.88424
C         20.92095        27.80060         0.61913
C         19.70769        27.08387         0.61250
C         20.92869        29.19295         0.49265
C         19.73310        29.89454         0.37390
O          7.87175        20.98195        -1.82464
O          6.46916        18.61468        -1.50897
O         18.21048         5.91313         1.66121
O          9.29818        25.23243        -1.80084
O         11.81374         8.13683         2.19924
O          8.53680        28.98867        -1.25520
O         14.05844        18.86377         1.72357
O         16.04676         7.22602         1.79295
O         19.51630         8.96988        -2.01463
O          9.69918         4.44934         1.67008
O         16.67511        19.06494         1.80169
H         15.93498        19.23319         2.42799
O          4.92210        22.90831        -1.81716
H          5.69035        22.38782        -2.13886
O          1.61968        16.29410        -2.21909
H          1.83035        17.21053        -2.49742
O          0.85763        19.05542         1.70523
H          1.56164        19.57989         2.14337
O          6.05608        23.33211         1.64686
H          6.80061        23.82512         2.05018
O          3.52670         6.25092         2.08308
H          3.46228         5.30968         2.35277
O          5.11724        18.67747         1.87128
H          4.33648        18.32743         2.34988
O         14.95723        22.60046        -2.07748
H         14.30134        21.92862        -2.36498
O         15.69262        10.37800        -2.03787
H         16.24073        11.07364        -2.47887
O          6.17952         7.62660        -1.55791
H          6.13450         8.54827        -1.89124
O         16.74991        27.19190         2.00043
H         17.42301        26.73865         2.55157
O         14.76654        14.44869        -1.81852
H         14.11070        13.86930        -2.25847
O         19.23043        17.32794        -2.42893
H         19.23434        16.44835        -2.86382
O         13.28422         6.96612        -0.86339
O         19.88462        22.68939         2.15429
H         19.85318        23.62730         2.47183
O         15.93498        14.53752         1.63908
H         16.69444        14.99281         2.06012
O         10.92930        25.03543         1.46976
H         11.73062        24.62916         1.86410
O          2.26858        22.88152         1.86438
H          1.37400        22.55225         2.09890
O          3.29717        29.39096         2.03954
H          2.37714        29.03678         2.15544
O         17.01851        12.80660        -2.30865
H         17.80281        13.29389        -2.64226
O         11.08856        14.91593         2.21535
H         11.96102        15.27684         2.48205
O          7.51506        12.72487        -1.66537
H          7.63643        11.79206        -1.94519
O         13.62891        24.98707        -2.19236
H         14.25027        24.25625        -2.45103
O         11.10601        10.73166         2.49802
H         11.29959         9.81658         2.82237
O          5.98991        14.78695         2.02088
H          5.20988        15.31784         2.29030
O         16.72200        18.69961        -1.83129
H         17.44978        18.33406        -2.39017
O          0.86832        28.12822         1.76872
H          0.76750        27.24684         2.18737
O         19.86399        25.45093         2.34247
H         20.71275        25.87552         2.59071
O         16.60014        27.69322        -1.61779
H         15.89460        28.02610        -2.21085
H          1.24382         2.33963        -0.37280
H         -0.90780         3.58183        -0.61838
H         -0.97130         6.03716        -0.39664
H         -1.01477         7.91330         0.08778
H         -1.03211        10.34665         0.04637
H         -1.02595        12.27059        -0.18720
H         -0.97658        14.69326        -0.50154
H         -0.90383        16.64773        -1.15148
H         -1.04034        18.93092        -0.43813
H         -1.00906        20.89916        -0.21592
H         -0.99600        23.32599        -0.41640
H         -0.91909        25.30144        -0.71310
H         -0.93105        27.72196        -0.41782
H          0.49045        29.72759        -0.80177
H          3.66009         2.34257        -0.00684
H          2.65606        30.92294        -0.57966
H          6.10567         2.34463        -0.07041
H          5.00642        30.97729         0.81062
H          8.43143         2.41692        -0.67266
H          7.29104        30.83434         1.25550
H         11.26112         2.35013        -0.45062
H         10.09083        30.93547         1.00801
H         13.54120         2.36655         0.00605
H         12.38832        30.97877         0.37501
H         15.99869         2.33416         0.02922
H         14.77649        30.99366         0.33753
H         18.47843         2.30763        -0.06047
H         17.26916        31.01485         0.41551
H         20.59487         3.52593        -0.37234
H         21.88596         5.63046        -0.60868
H         21.88598         8.06419        -0.96269
H         21.89105        10.11942        -0.90075
H         21.84722        12.53868        -0.66741
H         21.80051        14.42574        -0.96469
H         21.78470        16.82390        -1.14890
H         21.83754        18.65065        -0.28869
H         21.85865        21.01476         0.38000
H         21.71265        23.00916        -0.35449
H         21.70058        25.44729        -0.20031
H         21.87608        27.26903         0.73989
H         21.88552        29.73333         0.50096
H         19.74009        30.99033         0.28587
