         232
 CSIRO Nanostructure Databank - Neutral Graphene Oxide Data Set
C        -11.11399         0.77227        -0.09286
C         -9.89993         1.54750         0.16102
C         -8.63686         0.72164         0.07994
C         -7.35873         1.45681         0.39752
C         -6.19420         0.77192         0.38676
C         -4.87416         1.45675         0.63553
C         -3.73450         0.73411        -0.04799
C         -2.43317         1.43686        -0.01448
C         -1.23301         0.68376        -0.06211
C          0.02618         1.38730         0.03728
C          1.22708         0.68626         0.03246
C          2.46925         1.38887         0.34405
C          3.78472         0.73136         0.11891
C          5.01062         1.43780         0.57460
C          6.20615         0.76582         0.70231
C          7.47577         1.47050         0.77108
C          8.68470         0.72271         0.67988
C          9.97901         1.46502         0.89603
C         11.18807         0.70592         0.42029
C         -9.88045         2.90796         0.23213
C         -8.64589         3.68944         0.53213
C         -7.35601         2.91952         0.62453
C         -6.07306         3.63204         0.44744
C         -4.89005         2.94490         0.35375
C         -3.65078         3.61976         0.01173
C         -2.46216         2.82640        -0.19451
C         -1.19811         3.48214        -0.56723
C          0.04457         2.83089        -0.08988
C          1.22116         3.54172        -0.08815
C          2.45267         2.92113         0.39505
C          3.74380         3.64362         0.33519
C          4.94827         2.89091         0.79758
C          6.27396         3.66343         0.92498
C          7.50035         2.89070         0.72808
C          8.73187         3.59187         0.40672
C          9.91782         2.88991         0.40667
C         -8.53779         5.13897         0.23323
C         -7.35273         5.82605         0.31534
C         -6.08059         5.09743         0.56242
C         -4.74233         5.82495         0.33096
C         -3.61112         5.01592        -0.14053
C         -2.58126         5.61736        -1.10003
C         -1.20972         4.93090        -0.97842
C          0.03505         5.69855        -0.71660
C          1.28566         4.91354        -0.63249
C          2.59020         5.65114        -0.54216
C          3.80202         4.94383        -0.04865
C          5.12137         5.63381        -0.27750
C          6.24468         5.20131         0.74651
C          7.53862         5.76946         0.16053
C          8.68349         5.00869         0.08746
C         -7.27146         7.25071         0.03997
C         -6.10071         7.95456        -0.05732
C         -4.72558         7.34355         0.17927
C         -3.81962         7.84817        -0.97044
C         -2.46030         7.13523        -1.04571
C         -1.17249         7.84437        -0.79645
C          0.08204         7.06455        -0.62199
C          1.33435         7.79440        -0.49825
C          2.55256         7.12454        -0.46474
C          3.81297         7.82382        -0.38340
C          5.02832         7.14139        -0.30411
C          6.27794         7.85344        -0.30180
C          7.49000         7.16062        -0.17734
C         -6.08956         9.36640        -0.40470
C         -4.94518        10.03962        -0.71511
C         -3.66000         9.35174        -0.75925
C         -2.47545         9.97697        -0.52966
C         -1.20008         9.23298        -0.19582
C          0.10479         9.94828        -0.46226
C          1.30339         9.25708        -0.48968
C          2.57117         9.94342        -0.52600
C          3.78393         9.27189        -0.46337
C          5.04998         9.96515        -0.50308
C          6.23489         9.28936        -0.44554
C        -11.14272        -0.58208        -0.03548
C        -10.00265        -1.38947         0.47247
C         -8.73099        -0.64623         0.76238
C         -7.44742        -1.42542         0.86563
C         -6.18077        -0.71359         0.54609
C         -5.08067        -1.51680        -0.11739
C         -3.76131        -0.75452        -0.20894
C         -2.48766        -1.47684        -0.01154
C         -1.26432        -0.75555        -0.00616
C         -0.04877        -1.48632         0.13300
C          1.21427        -0.77450        -0.14996
C          2.50045        -1.53457        -0.21955
C          3.78607        -0.74465        -0.11553
C          4.97127        -1.49681         0.38356
C          6.22017        -0.71668         0.74492
C          7.49534        -1.41844         0.56260
C          8.68739        -0.69303         0.47644
C          9.94358        -1.41192         0.23514
C         11.16872        -0.62013         0.18828
C         -9.93570        -2.84004         0.22560
C         -8.76239        -3.57558         0.31665
C         -7.51537        -2.95595         0.92116
C         -6.22974        -3.64588         0.49586
C         -4.97648        -2.92694         0.40568
C         -3.75155        -3.59011         0.33996
C         -2.49049        -2.86625         0.22186
C         -1.26193        -3.56463         0.41942
C         -0.02857        -2.85772         0.40523
C          1.27746        -3.49605         0.89429
C          2.52665        -2.96943         0.19070
C          3.70990        -3.62701         0.29078
C          5.02549        -2.95774        -0.04819
C          6.24382        -3.64210         0.63218
C          7.45298        -2.84367         0.18585
C          8.73997        -3.55643        -0.12999
C          9.97447        -2.77083         0.03311
C         -8.72397        -4.97393         0.05665
C         -7.51214        -5.72230         0.08015
C         -6.25714        -5.00544         0.29549
C         -4.99502        -5.80779         0.43640
C         -3.71166        -5.02277         0.37623
C         -2.51845        -5.72541         0.30456
C         -1.25554        -5.01609         0.43119
C         -0.04441        -5.68876         0.41682
C          1.20610        -5.06975         0.98333
C          2.49613        -5.76046         0.57464
C          3.76249        -4.99687         0.94652
C          5.04031        -5.75462         0.60038
C          6.25173        -5.12950         0.34070
C          7.49402        -5.75694        -0.14365
C          8.67039        -5.03006        -0.21943
C         -7.48049        -7.09096        -0.22704
C         -6.23467        -7.76283        -0.63895
C         -4.94202        -7.00908        -0.47767
C         -3.66249        -7.75029        -0.49787
C         -2.53288        -7.15474        -0.00953
C         -1.26187        -7.90754         0.00096
C          0.00911        -7.14987         0.20246
C          1.25641        -7.67799        -0.47007
C          2.51613        -7.03315         0.07144
C          3.75335        -7.80052         0.02293
C          4.89266        -7.18045         0.50962
C          6.66569        -8.11411        -0.36012
C          7.50348        -7.10453        -0.73904
C         -6.10631        -9.23519        -0.76410
C         -4.92080        -9.84098        -0.97438
C         -3.64853        -9.05749        -1.26056
C         -2.35644        -9.82666        -1.10262
C         -1.21053        -9.24542        -0.64468
C          0.09423        -9.88603        -0.68930
C          1.27849        -9.19243        -0.53185
C          2.55625        -9.82857        -0.67506
C          3.76745        -9.17393        -0.46391
C          4.98249        -9.82895        -0.93989
C          6.25395        -9.32982        -1.03827
O          1.78715        -1.24844        -1.45602
O          5.27617        -1.23907         1.76490
O         -8.52467         0.34536        -1.33636
H         -8.48366         1.16426        -1.87384
O         -5.55791        -1.72719        -1.48330
H         -5.15411        -1.02388        -2.04504
O         -3.70839        -8.70561        -2.68144
H         -4.45831        -8.06751        -2.77916
O         -8.07331         3.31748         1.84991
O          5.59394         5.16921        -1.57060
H          4.87893         5.31407        -2.22752
O         -4.45166         7.54961        -2.18722
O          2.14596         5.07110        -1.82975
O          2.35003         2.11636         1.60669
O         -1.69060         7.69266        -2.14935
O          5.49549         3.25424         2.09013
O         -4.56334         1.30848         2.05153
H         -5.33074         1.62951         2.57173
O          6.01741         5.81334         1.95548
O          3.98455         0.16164        -1.23586
O         -5.07025        -6.40032         1.78002
H         -5.13002        -5.66666         2.42883
O          5.23527        -3.01572        -1.47016
H          4.51403        -2.52560        -1.91870
O         -3.14416         5.30742        -2.38835
H         -3.70793         6.10467        -2.64195
O         -7.62792        -3.28571         2.34389
H         -8.18307        -2.59213         2.76395
O         -4.19172         7.88110         1.40863
H         -4.60731         7.37747         2.14504
O          5.99948        -7.94386         0.87156
O         -0.55020        -7.92035         1.30036
O         -5.61170        -6.95970        -1.76534
O         -5.22955         5.51089         1.68037
O          3.76302        -4.71556         2.37800
H          3.00080        -4.08387         2.54299
O          1.01570        -5.38604         2.38835
H          1.04984        -4.49693         2.85455
O         -1.06054         3.89146        -1.98208
O         10.12954         1.56433         2.36330
H          9.37326         2.08829         2.70627
O          6.20178        -3.51034         2.06024
H          5.35953        -3.92052         2.39924
O         -6.52647        -0.99711         1.94041
O          1.52425        -3.01311         2.20416
O         -1.23156         9.00154         1.25552
H         -1.45504         9.84897         1.69425
O          1.13899        -7.21979        -1.85693
H          1.90659        -7.57023        -2.35606
O         -3.87667         0.15422        -1.38221
O         -9.63050        -0.89159         1.85654
O          7.86441        -2.98885        -1.20409
H         12.09573        -1.14112        -0.09557
H         12.13481         1.26278         0.35671
H         10.86670         3.42209         0.24064
H          9.61392         5.47119        -0.27930
H          8.43613         7.71177        -0.30106
H          7.18590         9.84156        -0.47304
H          5.04271        11.06214        -0.58467
H          2.56706        11.04291        -0.58081
H          0.11982        11.05011        -0.46089
H         -2.47468        11.06583        -0.34622
H         -4.97868        11.12404        -0.90445
H         -7.05209         9.90160        -0.39940
H         -8.22186         7.77280        -0.15522
H         -9.45851         5.68204        -0.03069
H        -10.82942         3.46426         0.16366
H        -12.02645         1.32339        -0.36798
H        -12.07126        -1.11780        -0.28583
H        -10.84997        -3.33633        -0.13808
H         -9.65366        -5.48135        -0.24575
H         -8.42805        -7.64391        -0.32724
H         -7.01535        -9.83802        -0.61127
H         -4.88146       -10.93900        -1.04445
H         -2.31083       -10.82539        -1.56507
H          0.13146       -10.96818        -0.89368
H          2.57306       -10.88205        -0.99798
H          4.79885       -10.79455        -1.44057
H          6.98883        -9.87778        -1.64843
H          8.15028        -7.24609        -1.61813
H          9.58429        -5.55060        -0.54692
H         10.94465        -3.28140        -0.06672
