         276
 CSIRO Nanostructure Databank - Neutral Graphene Oxide Data Set
C        -11.16682         0.62699         0.24333
C        -10.01346         1.34876         0.83729
C         -8.71457         0.58550         1.00609
C         -7.39081         1.40454         1.05669
C         -6.17981         0.63250         0.48374
C         -4.94484         1.44973         0.10802
C         -3.66149         0.72796        -0.13369
C         -2.41750         1.47235        -0.58467
C         -1.14731         0.74338        -0.87382
C          0.02446         1.47855        -1.47403
C          1.28778         0.72028        -1.71265
C          2.66226         1.40317        -1.90213
C          3.81043         0.74664        -1.12892
C          5.12049         1.50376        -1.05698
C          6.37411         0.67300        -0.98742
C          7.67901         1.42018        -0.80953
C          8.85594         0.67765        -0.21315
C          9.77504         1.53053         0.65195
C         10.99597         0.76938         1.10173
C        -10.08347         2.87793         0.71620
C         -8.75956         3.60529         0.82031
C         -7.54879         2.80978         0.45522
C         -6.36754         3.58067        -0.02970
C         -5.05630         2.88365        -0.30609
C         -3.79521         3.64318        -0.58010
C         -2.49451         2.93704        -0.87022
C         -1.18890         3.66493        -0.90173
C          0.11386         2.90128        -1.00612
C          1.40112         3.64613        -1.17482
C          2.62908         2.97375        -1.76926
C          3.92472         3.74304        -1.69320
C          5.19117         2.98619        -1.32639
C          6.53245         3.69328        -1.42374
C          7.77752         2.89143        -1.09081
C          9.08127         3.65618        -0.77539
C         10.04253         2.88791         0.09048
C         -8.71911         4.96622         0.87791
C         -7.51076         5.76698         0.71596
C         -6.32350         5.12624        -0.01781
C         -4.96713         5.65112         0.50210
C         -3.70059         5.00881         0.04056
C         -2.44041         5.83675        -0.24215
C         -1.13898         5.03035        -0.29001
C          0.16692         5.76002        -0.32075
C          1.35357         5.15432        -1.05741
C          2.62848         5.93609        -1.09279
C          3.93599         5.24093        -1.41253
C          5.23954         5.95616        -1.18674
C          6.55116         5.18457        -1.22285
C          7.76224         5.81640        -0.62054
C          8.86443         5.09295        -0.33848
C         -7.48186         7.10823         0.98891
C         -6.19648         7.85971         1.10507
C         -4.93259         7.09736         0.91071
C         -3.59796         7.81126         0.91617
C         -2.32672         7.07910         0.64134
C         -0.97976         7.81391         0.71478
C          0.11455         7.26193        -0.17681
C          1.40712         8.00825        -0.17679
C          2.65971         7.14059        -0.14601
C          3.92760         7.97634        -0.17830
C          5.22113         7.33714        -0.55591
C          6.45446         7.81909         0.21146
C          7.75148         7.33026        -0.45425
C         -6.06441         9.34437         1.18285
C         -4.87473         9.97867         1.12144
C         -3.60494         9.30239         0.63590
C         -2.27330         9.97419         0.89948
C         -1.05540         9.32595         0.71532
C          0.19188        10.01423         0.70521
C          1.44825         9.35818         0.46751
C          2.66240         9.93089         0.79043
C          3.95244         9.13738         0.81740
C          5.21691         9.94542         0.61183
C          6.38022         9.32874         0.35225
C        -11.17489        -0.69662        -0.00195
C        -10.02202        -1.57920         0.29301
C         -8.73006        -0.92007         0.72875
C         -7.45185        -1.65584         0.38849
C         -6.21865        -0.83135         0.13373
C         -5.06951        -1.44604        -0.63979
C         -3.75144        -0.72556        -0.54156
C         -2.45585        -1.48185        -0.53323
C         -1.17596        -0.76785        -0.82958
C         -0.08646        -1.46521        -1.63456
C          1.24111        -0.74663        -1.23348
C          2.54677        -1.49511        -1.46792
C          3.77973        -0.74825        -0.99251
C          5.02900        -1.63333        -0.85887
C          6.31343        -0.80384        -0.69485
C          7.41612        -1.38371         0.15495
C          8.80650        -0.79942         0.04966
C          9.95343        -1.52919         0.77052
C         11.03718        -0.56623         1.21083
C        -10.00382        -2.93338        -0.42641
C         -8.80762        -3.79042        -0.10549
C         -7.49370        -3.09626        -0.00954
C         -6.43519        -3.70554        -0.91961
C         -5.08393        -2.95612        -0.86893
C         -3.78919        -3.68802        -0.73157
C         -2.48034        -2.98918        -0.56630
C         -1.24546        -3.75000        -0.93884
C         -0.04013        -3.00220        -1.45631
C          1.26235        -3.74617        -1.46603
C          2.55910        -2.98447        -1.31323
C          3.38079        -3.46327        -0.09635
C          4.71175        -2.71695         0.17320
C          5.81320        -3.31428         0.99566
C          7.15982        -2.60584         1.01125
C          8.33910        -3.34308         1.52049
C          9.52725        -2.48600         1.91955
C         -8.79710        -5.15654        -0.06533
C         -7.55249        -5.89648        -0.08261
C         -6.33249        -5.26367        -0.72246
C         -5.04688        -5.83419        -0.15337
C         -3.77193        -5.09487        -0.25022
C         -2.53422        -5.90752        -0.51840
C         -1.30754        -5.25638        -1.08082
C          0.00896        -5.99987        -1.05510
C          1.29802        -5.24404        -1.21014
C          2.67811        -5.84035        -0.89140
C          3.47174        -4.98944         0.09176
C          4.59059        -5.60113         0.87708
C          5.73221        -4.77014         1.55274
C          7.08857        -5.49580         1.49481
C          8.29156        -4.68996         1.68879
C         -7.46617        -7.24317         0.26762
C         -6.25456        -7.98419         0.18249
C         -5.09900        -7.30948        -0.51204
C         -3.66703        -8.12809        -0.54515
C         -2.56496        -7.27004         0.16269
C         -1.19766        -7.94581         0.23517
C          0.03889        -7.31200        -0.31850
C          1.30698        -8.11039        -0.42810
C          2.59147        -7.33170        -0.52592
C          3.82939        -7.96229         0.05048
C          4.74410        -7.10593         0.88368
C          5.98216        -7.74744         1.44211
C          7.15955        -6.86028         1.56813
C         -6.18248        -9.35366         0.51847
C         -4.99904       -10.07665         0.46452
C         -3.72691        -9.46102         0.23474
C         -2.55586       -10.05142         0.63412
C         -1.18202        -9.41033         0.71035
C         -0.02085       -10.23506         0.06055
C          1.31827        -9.50127         0.11366
C          2.49789       -10.12494         0.37283
C          3.81641        -9.43323         0.36041
C          5.00017        -9.99094         1.08155
C          6.08148        -9.23412         1.36970
O          5.53509        -4.71803         2.92392
O          0.41116         1.12280        -2.81977
O          6.62962        -0.31716        -2.03207
O          4.61409         5.95467        -2.49536
O          0.69383        -5.98253        -2.32554
O          2.90546        -2.35882        -2.58370
O          3.26837        -5.33142         1.47982
O          8.05231         1.92635        -2.14753
O         -5.75913        -0.37540         1.44872
O          7.04187        -1.25481         1.57617
O         -3.97529         1.21358         1.19170
O          0.52755         8.00307        -1.34533
O         -6.49731         5.63858        -1.30369
O         -6.27910        -5.89510        -2.06421
O         -1.51026        -1.13759         0.51995
O          4.56185         8.30732        -1.43291
O         -1.95549         3.47920        -2.13101
O          3.23763         3.53025        -2.95833
O          0.51760        -3.52754        -2.69541
O         -0.32700        -7.12082         1.09202
O         -3.29108        -8.44971        -1.79946
O          1.72190         5.93008        -2.22586
O          4.81115        -7.46727         2.30029
O          1.04611         3.02880         0.10328
O         -5.61206        -7.20202        -1.89951
O          2.04566        -8.04340        -1.68176
O          9.34922        -0.27394        -1.19940
O         -4.33835        -3.39882        -2.05326
O          6.75645         4.57247        -2.54493
O         -4.46852        -5.29029         1.03284
O          4.37745        -8.89638        -0.91848
O         -7.10124        -2.74125         1.33573
O         -4.16439         4.85922         1.42409
O         -4.69064         3.29095        -1.67465
O         -1.60193        -3.51093         0.46913
O         -0.28589         5.08164         0.88231
O         -4.53490        -0.75200        -1.79734
O          5.07272         2.46980         0.04736
O         -9.56818        -1.64818         1.67050
O         -9.56976         0.89435         2.14379
O          4.82529        -2.39839         1.56827
O         -2.86208         7.17089         1.98995
O          3.53839         0.12386         0.15573
O         -2.27510        -5.88072        -1.96023
O         -0.57354         7.41757         2.11870
O         -7.32893         2.95900        -0.97679
O         -5.48984         7.25219         2.26806
O         -1.38857         1.28717         0.45155
O          2.67446         6.49378         1.16128
H          2.08795         6.99145         1.78655
O         -7.07699         1.66169         2.43065
H         -6.77586         0.81913         2.83779
O         -2.96050        -7.15140         1.54027
H         -2.30824        -6.57452         1.99581
O          0.71150         8.01129         2.47025
H          0.65568         7.98702         3.45717
O          9.83159         3.75585        -2.02391
H          9.58444         2.96278        -2.55996
O          4.04082         8.55299         2.16478
H          4.13792         9.29096         2.80334
O          5.26769        -2.41345        -2.04184
H          5.55524        -1.80934        -2.76345
O          3.43330        -5.77287        -2.11517
H          2.94744        -6.31088        -2.78099
O          7.89149         7.93421        -1.74055
H          7.17002         7.62005        -2.32590
O          8.92893         1.77727         1.84227
H          9.49496         2.16306         2.54459
O         -9.94175        -2.68993        -1.84913
H         -9.07531        -2.99946        -2.19973
O          2.46527        -3.02028         0.93185
H          2.85091        -3.28397         1.80118
O         -6.97171        -3.46742        -2.23628
H         -6.27173        -3.70612        -2.88762
O          3.03303         1.10744        -3.26042
H          2.31298         1.42516        -3.84942
O         -2.61418         6.36801        -1.57844
H         -2.72410         5.61785        -2.20636
O         -0.88186        -9.41977         2.12372
H         -1.40479        -8.70780         2.55102
O          9.21895        -1.75163         3.10095
H          8.31497        -1.37179         2.99781
O          1.09436        -0.70204         0.19845
H          1.91037        -0.34584         0.62501
O         -0.43964        -1.23218        -2.99615
H          0.06269        -1.87200        -3.55289
O          6.41234         7.20350         1.51829
H          5.59153         7.51982         1.97507
O        -10.64340         3.21132        -0.56790
H         -9.91015         3.32404        -1.20977
O         -3.70536         9.34310        -0.83370
H         -3.80179        10.27763        -1.11411
O         10.54124        -2.40494        -0.21986
H         10.66527        -1.87421        -1.03867
O         -0.32493       -10.53551        -1.29719
H         -0.14092        -9.75917        -1.86563
H         11.95683        -1.03916         1.58933
H         11.86559         1.36592         1.42166
H         11.05531         3.31303         0.18079
H          9.74668         5.60583         0.07614
H          8.62943         7.64385         0.16163
H          7.30502         9.91208         0.22743
H          5.17145        11.04072         0.71594
H          2.67334        10.93498         1.24610
H          0.20364        11.08817         0.95213
H         -2.26938        11.07572         0.97124
H         -4.84268        11.07160         1.26091
H         -6.97012         9.92278         1.42516
H         -8.37920         7.58785         1.41498
H         -9.65687         5.51218         1.07431
H        -10.79962         3.25170         1.49370
H        -12.03063         1.23911        -0.05461
H        -12.04362        -1.15579        -0.49693
H        -10.95688        -3.48248        -0.20190
H         -9.74258        -5.72107        -0.03885
H         -8.35558        -7.74145         0.68418
H         -7.10944        -9.87005         0.81029
H         -5.03323       -11.16603         0.62361
H         -2.63814       -10.98150         1.22446
H          0.05702       -11.20445         0.61212
H          2.48487       -11.17226         0.71596
H          5.05358       -11.08564         1.18690
H          6.99669        -9.70500         1.75963
H          8.15115        -7.33778         1.62635
H          9.19454        -5.21690         2.03722
H         10.40355        -3.14277         2.14672
