         349
 CSIRO Nanostructure Databank - Neutral Graphene Oxide Data Set
C          1.27593         3.37421        -0.76181
C          0.05077         4.06170        -0.87240
C          1.09882         6.21006        -0.21802
C         -0.06446         5.41562        -0.63820
C          1.09611         7.67648        -0.45734
C         -0.05885         8.42399        -0.34243
C          1.12385        10.58639        -0.51111
C         -0.04970         9.83715        -0.35591
C          1.17667        11.97734        -0.18230
C         -0.01065        12.74018         0.13037
C          1.36821        14.69802         0.79805
C          0.04559        14.04617         0.49443
C          1.35263        16.21368         0.80236
C          0.24503        16.89571         1.44771
C          1.18812        19.09605         0.87870
C          0.14747        18.24828         1.50629
C          1.14777        20.60825         0.90802
C          0.09911        21.39085         1.59774
C          1.40364        23.47852         1.34845
C          0.25539        22.71731         1.82881
C          1.53171        24.94045         1.64017
C          0.43487        25.73913         2.20225
C          1.71180        27.81529         1.86323
C          0.59258        27.07450         2.40303
C          1.91125        29.20673         2.25198
C          3.68910         3.39358        -0.27630
C          2.47801         4.04474        -0.41567
C          3.68555         6.26609        -0.35090
C          2.42257         5.50852        -0.13469
C          3.65173         7.66907        -0.71664
C          2.34309         8.33529        -0.87799
C          3.64500        10.59461        -1.00380
C          2.34723         9.88615        -0.96425
C          3.54510        12.03854        -0.91215
C          2.40930        12.69605        -0.33191
C          3.62884        14.85397        -0.32669
C          2.47631        14.09205        -0.03668
C          3.64300        16.29284        -0.12317
C          2.44678        16.93490         0.37870
C          3.49172        19.17032        -0.21691
C          2.55089        18.40683         0.73898
C          3.64373        20.61420         0.22464
C          2.45507        21.33890         0.74773
C          3.52815        23.52396        -0.00065
C          2.44226        22.82112         0.74107
C          3.51847        25.02859        -0.04241
C          2.63546        25.73459         0.94566
C          3.63067        27.99954         0.28019
C          2.58203        27.20781         0.97683
C          3.75221        29.50380         0.58693
C          2.93027        29.94361         1.77243
C          6.15963         3.40723         0.10968
C          4.86019         4.13891         0.31159
C          6.12689         6.20902        -0.46126
C          4.87287         5.56575        -0.21033
C          6.14826         7.65274        -0.94356
C          4.82394         8.40427        -0.89502
C          6.19216        10.47487        -1.10358
C          4.84803         9.84766        -1.06869
C          6.41080        11.87945        -1.45757
C          4.55374        12.90565        -1.38517
C          6.05912        14.89230        -1.16089
C          4.73228        14.22199        -0.96927
C          6.04918        16.36771        -0.84713
C          4.79301        17.03516        -0.42166
C          6.01395        19.18307        -0.42036
C          4.82601        18.46011        -0.30952
C          5.99946        20.63191        -0.41621
C          4.83908        21.36333        -0.24049
C          5.95328        23.52272        -0.62232
C          4.80997        22.81932        -0.29449
C          6.00223        24.99347        -0.82880
C          4.74667        25.76590        -0.51274
C          6.15216        27.89422        -0.33163
C          4.81450        27.25266        -0.28477
C          6.25469        29.28212         0.12521
C          5.18919        29.95731         0.65883
C          8.61706         3.37343        -0.16227
C          7.35140         4.07110        -0.09958
C          8.60910         6.20744        -0.60300
C          7.31112         5.51804        -0.29500
C          8.57305         7.68022        -0.18512
C          7.23196         8.41282        -0.17128
C          8.61274        10.58805        -0.87729
C          7.32475         9.81111        -0.71889
C          8.49495        11.94821        -0.18955
C          7.36060        12.69548        -0.87787
C          8.47963        14.85982        -0.49688
C          7.34260        14.14849        -0.89542
C          8.47725        16.29558        -0.34663
C          7.30658        17.03503        -0.46949
C          8.49876        19.16307        -0.50590
C          7.29545        18.47682        -0.42306
C          8.51010        20.59819        -0.81522
C          7.30379        21.37735        -0.32525
C          8.50810        23.55551        -0.87327
C          7.21236        22.78966        -0.85993
C          8.48980        25.02480        -0.69163
C          7.30836        25.72435        -0.76163
C          8.53903        27.94920        -1.06919
C          7.28947        27.18630        -0.65008
C          8.69188        29.31564        -0.36406
C          7.56941        29.89571         0.16183
C         11.10891         3.40360        -0.01887
C          9.85637         4.03245        -0.15984
C         11.10969         6.20766        -0.45456
C          9.83034         5.53104         0.02912
C         11.12558         7.70413        -0.61247
C          9.85485         8.42748        -0.31009
C         11.04949        10.57579        -0.41681
C          9.87102         9.87961        -0.48444
C         11.00458        12.03712        -0.35848
C          9.80116        12.69912        -0.26363
C         11.00883        14.88092        -0.00564
C          9.69129        14.15204         0.10718
C         11.01920        16.29229         0.01893
C          9.72421        17.00319         0.01872
C         11.06992        19.20457        -0.41616
C          9.77154        18.51423        -0.18041
C         11.10948        20.58129        -0.63355
C          9.82304        21.31530        -0.85465
C         11.07167        23.50031        -0.51996
C          9.75598        22.78169        -0.54169
C         11.05624        24.97175        -0.67879
C          9.78486        25.73229        -0.31859
C         10.95301        27.62184        -1.40831
C          9.79066        27.10512        -0.93731
C         11.07312        29.76241        -1.00943
C          9.95503        30.03390        -0.25465
C         13.55680         3.50302         0.45553
C         12.34427         4.13566         0.12249
C         13.56290         6.30070        -0.09047
C         12.37382         5.55136        -0.11434
C         13.58073         7.74052        -0.31308
C         12.38083         8.45203        -0.45546
C         13.52055        10.62590        -0.37431
C         12.33621         9.89073        -0.38779
C         13.50633        12.04915        -0.21012
C         12.26084        12.74378        -0.19963
C         13.44987        14.80804         0.42200
C         12.21344        14.13994         0.01697
C         13.43391        16.34278         0.47176
C         12.21297        17.04603         0.08171
C         13.54914        19.09460        -0.29301
C         12.29248        18.44709        -0.22053
C         13.65221        20.46051        -0.97572
C         12.34881        21.30756        -0.80438
C         13.33039        23.53874        -1.38825
C         12.26606        22.70900        -0.92041
C         13.45064        24.88775        -1.15455
C         12.24339        25.63814        -0.91669
C         13.43946        27.81964        -1.16637
C         12.26617        27.07586        -1.16404
C         13.52689        29.28731        -1.07844
C         12.44913        30.14640        -0.83807
C         15.98172         3.61632         0.95664
C         14.76890         4.23714         0.54367
C         16.00798         6.36605         0.23291
C         14.78245         5.63699         0.23335
C         16.02323         7.78856        -0.08576
C         14.82788         8.45977        -0.30956
C         16.05289        10.68254        -0.38481
C         14.80234         9.91978        -0.74841
C         16.01520        12.04510        -0.10834
C         14.74601        12.75412        -0.03749
C         15.93344        14.87431         0.51302
C         14.74314        14.13479         0.26156
C         15.89520        16.29404         0.69893
C         14.72322        17.02423         0.45299
C         15.94867        19.12935         0.40215
C         14.73969        18.42791         0.15615
C         15.97790        20.51884         0.16135
C         14.95993        21.15215        -0.56653
C         16.09961        23.38273        -0.47143
C         15.20913        22.48331        -1.01230
C         15.86251        24.89471        -0.30455
C         14.80082        25.57106        -1.25096
C         15.99524        27.76336        -0.72325
C         14.68419        27.04909        -0.86598
C         16.02988        29.21196        -0.99709
C         14.84200        29.90150        -1.07347
C         18.42084         3.75598         1.49216
C         17.17261         4.33936         0.99428
C         18.53208         6.33805         0.37446
C         17.18984         5.69710         0.57112
C         18.47560         7.81876         0.08896
C         17.30298         8.48346        -0.14737
C         18.54815        10.66963        -0.15633
C         17.33757         9.92682        -0.63706
C         18.50770        12.12849        -0.12529
C         17.22675        12.82884         0.08609
C         18.44616        14.94854         0.61486
C         17.20509        14.18587         0.41644
C         18.41414        16.33945         0.90330
C         17.10118        16.97044         1.33066
C         18.37800        19.23334         1.08006
C         17.03481        18.54115         1.29265
C         18.39609        20.64178         0.95854
C         17.10807        21.33008         0.68802
C         18.39781        23.57713         0.50396
C         17.10874        22.81176         0.44545
C         18.44910        24.84257        -0.31322
C         17.19514        25.64462        -0.41461
C         18.53241        27.63945        -1.18775
C         17.24796        26.96327        -0.73488
C         18.49844        29.14388        -0.99391
C         17.31844        29.84908        -1.02991
C         19.50597         4.51307         1.75062
C         20.84563         6.59914         1.22106
C         19.48532         6.01138         1.52956
C         20.97235         7.72055         0.49039
C         19.80695         8.45020        -0.06416
C         21.02225        10.73416         0.29479
C         19.83579         9.99501        -0.17582
C         20.98682        12.06375         0.50318
C         19.80308        12.87440         0.13681
C         20.88720        15.02007         0.75464
C         19.70489        14.29758         0.54130
C         20.84673        16.38598         0.98198
C         19.61431        17.06327         1.06136
C         20.79206        19.26109         1.29101
C         19.59372        18.52699         1.18587
C         20.79903        20.64783         1.23355
C         19.61275        21.36806         1.01856
C         20.94457        23.52452         0.46965
C         19.66747        22.85145         0.83599
C         20.98973        24.77527        -0.02273
C         19.78068        25.51203        -0.47987
C         20.90039        27.73770        -0.38164
C         19.79132        26.98846        -0.63505
C         20.89783        29.17012        -0.53287
C         19.74735        29.84163        -0.82678
O         11.09920         6.82350        -1.77995
O          9.13026        20.94117        -2.09328
O         19.14433        24.75813        -1.60961
O         20.05382         9.09051        -1.35361
O          0.71345        19.85882        -0.27732
O          2.82552        25.20065         2.30738
O          5.09937        25.45297        -1.88787
O          3.49596        20.83599         1.67161
O          1.69438         5.83668         1.10754
O         16.65414        22.28108         1.73956
O         10.37959        23.07400         0.73597
O         18.94498        23.66389         1.84791
O          9.64950        17.90227         1.17197
O         10.90898        28.85387        -2.08664
O          7.86800        23.10446        -2.11349
O          5.46535        12.42103        -2.32818
O         13.28378        15.52554         1.68739
O          2.17038         9.04309        -2.14995
O          9.31753         8.02706         1.02143
O         14.38746        22.91470        -2.06791
O          2.89243        24.28177        -1.11507
O          6.06907        15.87389        -2.24558
O          3.76836        27.83203        -1.16812
O         19.35091        12.68646        -1.24013
O         15.17950        27.41354         0.45551
O          3.18570        18.38820         2.04061
H          2.67150        17.78933         2.62168
O          6.55179         7.65550        -2.35347
H          5.77452         7.39485        -2.89197
O          7.53709        21.57121         1.11008
H          7.36489        20.72387         1.57418
O         17.01464        16.54007         2.72020
H         16.51405        17.23219         3.21106
O         15.31114        24.97317         1.02177
H         15.92600        24.54466         1.65467
O         18.57485        27.41215        -2.63416
H         18.68579        26.43966        -2.75732
O          9.38534        14.16356         1.56967
H         10.23889        14.19400         2.05460
O          1.67267        14.33930         2.20152
H          1.69325        13.35961         2.25221
O          8.75682         6.11377        -2.03719
H          7.99173         6.58775        -2.44954
O          2.93485        19.19639        -1.54520
H          2.89606        18.27998        -1.88953
O          9.78371        25.85375         1.13728
H          9.93935        24.94731         1.49405
O          8.76359        10.87904        -2.30173
H          8.90047        10.03330        -2.77810
O         18.96605         6.65009         2.72473
H         19.48286         6.33012         3.49269
O          8.17618        11.74714         1.20465
H          8.39138        12.59319         1.67196
O          6.77846         8.48795         1.19406
H          7.57843         8.64518         1.74781
O         17.48939         9.82064        -2.11308
H         18.42041         9.51817        -2.26979
O         14.76611         9.88324        -2.22032
H         15.69754         9.76014        -2.53070
O         15.28133        25.52764        -2.60595
H         15.20569        24.59710        -2.91669
O          4.63654         4.20968         1.76392
H          3.81001         4.72051         1.91020
O         16.62390        18.96142         2.63546
H         16.57090        19.94237         2.64609
O          9.74585         5.68150         1.46755
H         10.44435         5.12816         1.87441
O         13.75547        20.16816        -2.40308
H         13.89682        21.02870        -2.85877
O         19.12608         5.71985        -0.80618
H         18.54026         5.90115        -1.57060
O          3.17155        30.22554        -0.53998
H          3.38457        29.69079        -1.34188
O          8.31785        28.23931        -2.47661
H          9.13417        28.68364        -2.80564
H          1.30805         2.29174        -0.95031
H         -0.84135         3.49587        -1.17766
H         -1.02098         5.92327        -0.82557
H         -1.00622         7.92033        -0.10271
H         -0.99001        10.34610        -0.10575
H         -0.99451        12.26626         0.00560
H         -0.88649        14.59694         0.68631
H         -0.54622        16.28122         1.90073
H         -0.73617        18.72076         1.95964
H         -0.82506        20.88317         1.90954
H         -0.54376        23.25967         2.35350
H         -0.50195        25.24698         2.49819
H         -0.19719        27.64721         2.91159
H          1.26055        29.60789         3.04374
H          3.76409         2.31310        -0.47236
H          3.09091        30.96962         2.13587
H          6.15643         2.31497         0.24816
H          5.35914        30.97681         1.04036
H          8.59459         2.27206        -0.13801
H          7.63802        30.90445         0.59946
H         11.15635         2.30384         0.01991
H         10.02857        30.78765         0.54489
H         13.57127         2.42111         0.65517
H         12.67752        31.16416        -0.48258
H         15.97038         2.55814         1.25747
H         14.87809        30.99814        -1.16720
H         18.43550         2.67496         1.70023
H         17.35206        30.95029        -1.01539
H         20.41455         4.05592         2.17396
H         21.74418         6.09283         1.60859
H         21.97319         8.11231         0.25560
H         21.93722        10.17027         0.52439
H         21.86325        12.56415         0.93904
H         21.86199        14.51947         0.68866
H         21.79539        16.92417         1.09585
H         21.75129        18.74739         1.43019
H         21.75656        21.17449         1.33779
H         21.89083        23.01248         0.69715
H         21.97030        25.23983        -0.20523
H         21.83189        27.25990        -0.04465
H         21.83486        29.71768        -0.36327
H         19.73965        30.94121        -0.86396
