         280
 CSIRO Nanostructure Databank - Neutral Graphene Oxide Data Set
C         30.84874        32.15858        -2.25517
C         30.64823        33.28286        -1.73512
C         30.62936        36.21438        -0.59658
C         30.41111        37.43706        -0.14118
C         30.33216        40.32104         1.07809
C         30.35169        41.54717         1.31596
C         33.36759        29.41252        -2.73821
C         32.32666        30.09362        -2.89306
C         33.14620        31.93454        -1.61666
C         32.00363        31.35881        -2.34745
C         32.98469        33.38269        -1.10395
C         31.54103        33.77006        -0.59916
C         32.76217        35.93108         0.39062
C         31.54274        35.25985        -0.41118
C         32.81133        37.41924         0.03784
C         31.48138        38.15839         0.31761
C         32.74987        40.20957         1.26808
C         31.44156        39.30928         1.29686
C         32.76730        41.71393         1.32557
C         31.43140        42.45503         1.35081
C         32.72070        44.44591         1.11246
C         31.62542        43.82456         1.24728
C         36.15852        27.92154        -2.23377
C         35.75101        29.13664        -1.88109
C         34.70927        30.05396        -2.45230
C         35.38308        31.71253        -0.50780
C         34.35396        31.26118        -1.53026
C         35.43210        33.26074        -0.46531
C         34.05474        33.80063        -0.06169
C         35.28531        35.91151         0.59048
C         34.12481        35.30228         0.15470
C         35.22189        37.34609         1.05056
C         33.96588        38.09958         0.73322
C         35.26066        40.28607         0.78512
C         33.94364        39.59744         0.53684
C         35.17730        41.72325         0.59850
C         34.01239        42.43522         0.87598
C         35.15810        44.62130         0.54312
C         33.99903        43.90446         0.79194
C         35.39747        46.01599         0.37512
C         38.15711        27.51756        -1.18811
C         37.11954        27.06234        -1.99012
C         38.03004        28.86408        -0.63152
C         36.67344        29.55226        -0.67607
C         37.68984        31.56302         0.40239
C         36.78682        31.09177        -0.70768
C         37.39179        32.75513         0.99302
C         36.48177        33.77916         0.50987
C         37.64445        35.87498         1.61760
C         36.52359        35.13228         0.81705
C         37.76273        37.37788         1.18734
C         36.48119        38.16870         1.42022
C         37.72001        40.25153         0.60548
C         36.45527        39.59236         0.85212
C         37.68486        41.60286        -0.11403
C         36.39410        42.40288         0.10446
C         37.73296        44.61067         0.32123
C         36.41692        43.90147         0.19381
C         37.77031        46.12312         0.12217
C         36.39391        46.62308        -0.08288
C         40.21817        24.56530        -0.13775
C         39.29780        25.29512        -0.52736
C         40.42646        27.37386        -0.06739
C         39.41892        26.73363        -1.01997
C         40.33010        28.71437         0.26153
C         39.07861        29.44934         0.04635
C         40.21393        31.62016         0.58727
C         38.93292        30.76750         0.82428
C         40.25559        33.01600         1.23310
C         39.21713        33.74333         1.74093
C         40.29555        36.00428         1.36292
C         39.06216        35.23108         1.71607
C         40.24156        37.40406         0.86446
C         38.92917        38.08097         0.93653
C         40.14527        40.09947        -0.02170
C         38.89843        39.53532         0.64987
C         40.21669        41.67493        -0.29516
C         38.94761        42.44504         0.05559
C         40.25725        44.60538         0.44848
C         38.97360        43.80775         0.15520
C         40.31539        46.03374        -0.11321
C         38.98784        46.71306        -0.54374
C         40.30830        48.79076        -0.41811
C         39.24371        48.17577        -0.34443
C         42.69817        24.42359         0.84461
C         41.64989        25.03642        -0.04462
C         42.77676        27.20503         0.78565
C         41.44792        26.48849         0.63697
C         42.78965        28.70408         0.82958
C         41.50589        29.45433         0.73926
C         42.76250        31.57607         0.91448
C         41.50452        30.83319         0.83153
C         42.77759        32.94761         0.81354
C         41.54918        33.71523         1.13883
C         42.73592        35.90237         0.56836
C         41.56924        35.21367         1.19894
C         42.73692        37.37999         0.74775
C         41.41598        38.05792         0.60377
C         42.69345        40.14071        -0.08776
C         41.44376        39.56887         0.64097
C         42.73541        41.66433        -0.00164
C         41.44039        42.37072         0.35561
C         42.76998        44.52231         0.58033
C         41.52129        43.86077        -0.02325
C         42.77893        45.99126         0.17232
C         41.52610        46.66523        -0.20948
C         42.90978        48.74735        -0.34189
C         41.60946        48.15401        -0.81886
C         43.68799        25.02764         1.27650
C         45.18557        27.22952         1.69452
C         43.92060        26.46531         1.48527
C         45.22184        28.69629         1.32206
C         44.05123        29.38888         1.19519
C         45.34269        31.54051         0.95554
C         44.03868        30.88288         1.37574
C         45.36135        33.01974         0.90764
C         44.04673        33.73123         0.87903
C         45.30243        35.87852         0.43860
C         44.01997        35.16499         0.42727
C         45.40193        37.36026         0.65389
C         44.04810        38.10467         0.72889
C         45.20945        40.16414        -0.29077
C         44.03682        39.62788         0.52160
C         45.17065        41.64870        -0.52882
C         43.91339        42.35938        -0.15034
C         45.22127        44.43970         0.06992
C         44.01201        43.78691         0.10870
C         45.23787        45.88165         0.64775
C         43.99651        46.63066         0.24234
C         43.88655        48.01540        -0.11715
C         47.61885        27.35462         1.73527
C         46.56126        26.72048         1.78424
C         47.85690        28.67273         1.13335
C         46.51828        29.38317         1.01447
C         47.84107        31.61843         0.94722
C         46.51604        30.86105         0.89953
C         47.76824        32.99262         0.29863
C         46.58030        33.68770         0.41090
C         47.81606        35.84258         0.13017
C         46.48513        35.10749        -0.10413
C         47.71219        37.26230        -0.37328
C         46.39320        37.97970        -0.39502
C         47.63489        40.15057        -1.00219
C         46.49469        39.47446        -0.25499
C         47.68155        41.67900        -0.88692
C         46.44355        42.40244        -0.65352
C         47.59079        44.57076        -0.90785
C         46.41278        43.78041        -0.45063
C         47.46685        45.95236        -0.43033
C         46.52585        46.46220         0.16953
C         50.41083        28.96047         1.17070
C         49.10823        29.45374         1.10711
C         50.26319        31.45084         0.17862
C         49.09096        30.80370         0.63711
C         50.05481        32.68614        -0.71819
C         48.95563        33.61986        -0.22234
C         50.16325        35.71351        -0.75922
C         49.00226        35.03223        -0.39387
C         50.21079        37.20895        -0.80834
C         48.93025        37.99105        -0.65816
C         50.21975        40.23074        -0.51758
C         48.92359        39.49122        -0.52692
C         50.19943        41.62217        -1.11382
C         48.88808        42.34570        -1.05647
C         50.21325        44.39816        -1.24941
C         48.86011        43.83131        -1.25359
C         51.50167        29.52760         0.86214
C         52.61538        31.59478        -0.26358
C         51.54568        30.79512         0.27106
C         52.52125        32.62729        -0.93923
C         51.34303        33.45969        -1.16186
C         52.53518        35.82639        -1.14650
C         51.35989        34.94876        -1.22709
C         52.60770        37.01663        -0.83817
C         51.52117        37.94023        -0.48562
C         52.65321        40.33731        -0.60473
C         51.52895        39.42523        -0.35121
C         52.64985        41.56193        -0.77031
C         51.55777        42.39551        -1.26618
C         51.29700        43.81982        -1.11097
O         38.06240        33.09180         2.16944
O         34.18368        37.60244         2.06671
O         39.81116        35.93224         2.76038
O         43.41305        37.76627         2.00712
O         47.17766        28.74794        -0.15539
O         44.78350        33.61620         2.15758
O         36.20242        43.23032        -1.10533
O         33.00481        40.85422         2.53080
O         49.40761        40.10286         0.69500
O         50.91319        41.79075        -2.39166
O         51.54432        38.57460         0.80956
O         49.54385        37.67153        -2.02479
O         44.93588        40.72095        -1.67178
O         51.16535        34.13451        -2.42405
O         43.10487        27.91457        -0.42202
O         43.10505        35.40593        -0.75359
O         44.25671        26.96817         2.78607
O         37.86619        45.55781         1.44909
O         41.88457        34.46506         2.39702
O         47.95498        44.30920        -2.27416
O         33.08952        37.45014        -1.39065
H         32.32202        37.05625        -1.86288
O         38.82995        46.46944        -1.93846
H         39.59476        46.87381        -2.40633
O         40.31465        44.74120         1.88058
H         39.48430        45.18824         2.17316
O         35.23268        30.57490        -3.67242
H         34.53195        31.09400        -4.11961
O         42.78649        44.44819         2.02504
H         43.65698        44.80936         2.33385
O         38.87256        30.44401         2.21775
H         37.99421        30.05748         2.41365
O         36.43238        38.42472         2.84749
H         36.37054        37.54461         3.29200
O         47.45135        39.84065        -2.41359
H         46.62338        40.30525        -2.68736
O         40.06424        39.43736        -1.30539
H         39.19366        39.66019        -1.70227
O         36.00247        29.12114         0.51611
H         36.03910        28.14148         0.54172
O         41.68451        44.04763        -1.43449
H         41.19463        43.32934        -1.90889
O         42.16025        25.17881        -1.32695
H         42.26645        24.30340        -1.74933
O         31.21122        33.09224         0.59049
H         30.38512        33.46914         0.95742
O         40.35391        41.82835        -1.72602
H         39.48846        41.57262        -2.12598
O         37.68546        41.21134        -1.53629
H         37.14096        41.88932        -2.00752
O         40.93218        26.25933         1.95597
H         40.18957        25.61943         1.89253
O         32.41390        35.71763         1.74521
H         32.62773        34.77981         1.96632
O         41.20421        42.33757         1.78076
H         41.74061        43.05941         2.20492
O         40.16092        31.90897        -0.85231
H         41.04839        32.21222        -1.14277
O         45.76170        37.69317        -1.69774
H         46.29782        38.18681        -2.36767
O         31.34701        38.76781         2.59277
H         31.67217        39.44027         3.23292
O         40.04757        26.65903        -2.30018
H         39.35550        26.44696        -2.96292
O         41.49456        39.79854         2.05641
H         41.33425        40.75776         2.25432
O         37.15756        35.87089         2.98300
H         37.94121        36.02119         3.56164
O         37.32692        31.51748        -1.97836
H         38.31055        31.47332        -1.92466
O         44.19847        40.23208         1.81942
H         43.50162        39.82945         2.39600
O         46.27231        34.99434        -1.54445
H         45.98537        35.88674        -1.87299
O         35.76057        33.75006        -1.78469
H         36.43696        33.12889        -2.16301
O         42.57627        39.67234        -1.43401
H         43.28012        40.10334        -1.97512
O         33.17124        34.22460        -2.25725
H         34.13216        34.19541        -2.49309
O         43.99248        31.05659         2.83036
H         44.08533        32.02552         3.00854
O         48.02210        31.89748         2.37857
H         47.31221        32.51059         2.66907
O         33.66612        33.30214         1.23956
H         34.45743        33.32426         1.82188
O         48.09401        35.95754         1.55177
H         47.42706        36.58097         1.94965
O         46.04004        37.62904         1.93909
H         45.34103        37.53785         2.62792
O         33.68529        39.92207        -0.86047
H         33.60845        39.09476        -1.39917
O         49.50713        32.12758        -1.94255
H         49.66912        32.77775        -2.66429
O         41.62233        48.01075        -2.21516
H         41.82584        48.87376        -2.63110
O         34.95934        31.26789         0.79778
H         33.99135        31.11372         0.79691
O         45.24150        45.74330         2.08411
H         45.28834        46.63853         2.48201
