         324
 CSIRO Nanostructure Databank - Neutral Graphene Oxide Data Set
C          2.58765         2.89243        -4.42401
C          2.33711         4.13597        -3.80217
C          3.73561         2.18241        -4.14560
C          3.22673         4.67724        -2.87472
C          2.18106         6.93137        -2.88761
C          1.97364         8.23716        -2.31903
C          2.98328         5.99920        -2.28667
C          2.54708         8.63787        -1.15202
C          1.31416        10.89117        -1.13770
C          1.33620        12.22499        -0.87578
C          2.33347         9.99191        -0.59267
C          2.45740        12.88390        -0.24597
C          1.40906        15.13470        -0.56920
C          1.49930        16.52879        -0.57114
C          2.46680        14.32848        -0.06564
C          2.52275        17.19270         0.10106
C          2.56262        18.62209         0.11973
C          4.68296         2.68545        -3.20341
C          4.41466         3.93380        -2.54179
C          5.86052         1.97487        -2.90677
C          5.34774         4.42274        -1.59848
C          3.70668         6.36487        -1.03976
C          3.49391         7.74934        -0.36350
C          4.96275         5.58635        -0.76248
C          4.80922         8.52541        -0.14442
C          3.56806        10.66892         0.04721
C          3.59832        12.14159         0.08105
C          4.83637         9.88932         0.06487
C          4.82576        12.80041         0.42680
C          3.57360        14.95576         0.55384
C          3.40154        16.39401         1.03734
C          4.78757        14.22752         0.73976
C          4.69509        17.12934         1.48212
C          3.54144        19.31716         0.74811
C          4.77633        18.69870         1.34146
C          6.81106         2.47639        -1.99215
C          6.54955         3.72829        -1.32984
C          8.00989         1.77203        -1.70618
C          7.53383         4.23492        -0.41169
C          6.04381         6.27687         0.01236
C          6.07268         7.77202        -0.12955
C          7.33390         5.56369         0.22039
C          7.35580         8.49286         0.20045
C          6.06891        10.61515         0.34811
C          6.01011        12.04366         0.52497
C          7.30022         9.93617         0.49008
C          7.28161        12.76519         0.62550
C          5.94732        14.88576         1.18896
C          5.96352        16.28776         1.67087
C          7.23615        14.24276         0.94558
C          7.29999        16.94234         1.75595
C          5.95005        19.12681         0.44723
C          7.22537        18.95593         0.90039
C          8.97665         2.28448        -0.82577
C          8.71926         3.55304        -0.18522
C         10.21731         1.60291        -0.62580
C          9.74146         4.13480         0.72187
C          8.54539         6.33846         0.60436
C          8.49594         7.71097         0.71791
C          9.72769         5.59862         0.95367
C          9.58232         8.43778         1.38655
C          8.53031        10.59533         0.83272
C          8.54403        12.03564         0.87113
C          9.70675         9.89163         1.19639
C          9.73030        12.70097         1.04149
C          8.49004        14.88626         1.43536
C          8.49332        16.36805         1.39169
C          9.76939        14.14169         1.35458
C          9.71558        17.06928         1.02917
C          8.50168        19.21274         0.30464
C          9.67038        18.45907         0.53083
C         11.27213         2.14341         0.12514
C         11.06407         3.41002         0.86254
C         12.53726         1.54448         0.22675
C         12.25146         4.17676         1.29086
C         10.86458         6.24124         1.43022
C         10.82961         7.68197         1.74924
C         12.09176         5.52886         1.65199
C         12.09785         8.42989         1.99811
C         10.97544        10.52447         1.37814
C         10.99781        11.95088         0.99920
C         12.18557         9.87238         1.77561
C         12.27754        12.72294         1.03670
C         11.01038        14.91374         1.14882
C         10.90813        16.33065         0.92115
C         12.23034        14.21376         1.06930
C         12.10763        16.90522         0.19824
C         10.89022        19.07269         0.11906
C         12.11969        18.40601         0.07851
C         13.62698         2.18733         0.88575
C         13.51609         3.54723         1.36687
C         14.85432         1.55184         1.05188
C         14.64359         4.22070         1.95605
C         13.15474         6.19259         2.32956
C         13.05810         7.61465         2.58369
C         14.33636         5.46286         2.57195
C         15.00538         8.75791         2.59686
C         13.46384        10.62498         1.77411
C         13.50759        12.00340         1.42875
C         14.77427         9.96994         1.96933
C         14.72547        12.78752         1.30909
C         13.46557        14.89121         0.91659
C         13.43489        16.40015         0.77066
C         14.68676        14.20770         0.99420
C         14.62162        16.90430        -0.06440
C         13.32290        19.07187        -0.18390
C         14.59433        18.42064        -0.18309
C         16.01027         2.24556         1.51191
C         15.97622         3.62533         1.93539
C         17.22031         1.53835         1.42062
C         17.25082         4.29883         2.15791
C         16.29113         6.57925         2.76161
C         16.22725         7.96766         2.48951
C         17.37060         5.76172         2.35741
C         17.40464         8.59029         2.04494
C         16.00118        10.68047         1.49348
C         15.97633        12.15813         1.39886
C         17.33289        10.00454         1.64249
C         17.19390        12.88106         1.21012
C         15.93079        14.95362         0.78798
C         15.90575        16.30829         0.46818
C         17.19583        14.24776         0.88159
C         17.14445        17.09976         0.36170
C         15.75300        19.12016        -0.42500
C         17.08371        18.52146        -0.20745
C         18.45263         2.19677         1.55889
C         18.45704         3.58449         1.92892
C         19.63981         1.49765         1.23560
C         19.79555         4.21901         1.97349
C         18.58358         6.45755         2.07694
C         18.60411         7.86448         1.97683
C         19.86529         5.72459         2.00950
C         19.89980         8.59254         1.93591
C         18.57838        10.80652         1.80289
C         18.50449        12.24716         1.42134
C         19.89797        10.08881         1.77657
C         19.74840        12.87345         0.78502
C         18.39706        14.86971         0.37575
C         18.42893        16.34394         0.22547
C         19.54598        14.14357         0.08650
C         19.60398        17.01007        -0.41561
C         18.26535        19.06862        -0.87468
C         19.48505        18.39975        -0.93411
C         20.89748         2.14121         1.10920
C         20.99034         3.52872         1.43449
C         22.02581         1.42805         0.63831
C         22.24546         4.19435         1.32376
C         21.03889         6.38705         1.30484
C         21.15887         7.83702         1.71422
C         22.35711         5.65095         1.43365
C         22.36206         8.54928         1.22921
C         21.01971        10.70116         1.01261
C         20.89753        12.00213         0.45199
C         22.18419         9.91762         0.75480
C         21.81339        12.45473        -0.53531
C         20.58835        14.66483        -0.82841
C         20.64084        16.14933        -1.08286
C         21.81582        13.83523        -1.11352
C         21.93394        16.80893        -1.36438
C         20.67835        18.97181        -1.42388
C         21.91251        18.24871        -1.43328
C         23.28447         2.05734         0.54092
C         23.37067         3.43159         0.93018
C         24.45268         1.37009         0.09457
C         24.69504         4.03208         1.04290
C         23.55773         6.35438         1.35914
C         23.55492         7.83748         1.10996
C         24.79603         5.50762         1.41146
C         24.68893         8.55866         0.53638
C         23.14367        10.42157        -0.15291
C         22.81994        11.55364        -0.90735
C         24.57432         9.99683         0.03765
C         24.66730        12.58320        -1.55002
C         23.14092        14.59703        -1.49394
C         23.13664        16.08866        -1.42109
C         24.49243        13.96159        -1.39836
C         24.38053        16.80066        -1.37325
C         23.13558        18.93067        -1.52228
C         24.35931        18.23368        -1.41673
C         25.68916         2.04283        -0.08721
C         25.81132         3.38227         0.33723
C         26.86407         1.36165        -0.59554
C         26.95842         4.16978        -0.10610
C         26.15986         6.04814         1.19732
C         25.99428         8.14371         0.65406
C         27.17293         5.49607         0.49255
C         26.96035         8.37473        -0.40329
C         25.63669        10.39393        -0.99371
C         25.84564        11.82633        -1.28341
C         26.67996         9.54353        -1.21930
C         27.05429        12.51865        -1.05544
C         25.67462        14.71452        -1.18928
C         25.64827        16.13952        -1.22216
C         26.91242        13.97814        -0.82852
C         26.87761        16.88600        -1.20356
C         25.57358        18.95569        -1.31797
C         26.82763        18.33607        -1.24538
C         28.07445         1.99655        -0.79251
C         28.15435         3.46691        -0.71221
C         29.30086         1.29942        -1.10436
C         29.46619         4.15719        -0.70613
C         28.42426         6.31841         0.17590
C         27.98711         7.50091        -0.67964
C         29.56566         5.54523        -0.47586
C         29.87738         8.45240        -1.23600
C         28.61552        10.59508        -1.43451
C         28.37981        11.91659        -0.98233
C         29.80262         9.87082        -1.12350
C         29.54705        12.64694        -0.57895
C         28.14220        14.79360        -0.48779
C         28.11411        16.17732        -1.01056
C         29.49753        14.11972        -0.19939
C         29.33143        16.70598        -1.43838
C         27.97085        19.20308        -1.03859
C         29.24688        18.84813        -1.43522
C         30.48580         1.96292        -1.23933
C         30.61131         3.39494        -1.04405
C         31.85237         4.05323        -1.16939
C         30.80255         6.20692        -0.70313
C         30.90712         7.69062        -0.67835
C         31.93444         5.43546        -1.03533
C         32.01193         8.40826        -0.15241
C         30.90645        10.56491        -0.54834
C         30.80319        12.00708        -0.44458
C         32.01834         9.79913        -0.11307
C         31.98328        12.80740        -0.30250
C         30.73351        14.86342        -0.68224
C         30.64007        16.22729        -1.09195
C         31.95341        14.17757        -0.52718
C         31.73980        17.12310        -1.17392
C         30.53131        19.34102        -1.07105
C         31.66847        18.53120        -1.12417
O          6.31358         5.67179         1.30518
O         20.14336         4.97273         3.20723
O         22.25810        13.99132        -2.48214
O         14.02442         8.18806         3.40801
O         15.24756         5.99850         3.48016
O         20.75981         8.16172         3.07235
O         17.24809        18.23624         1.25916
O         19.44095        13.02915         2.20917
O         10.02842         3.32534         1.90811
O         24.88015         4.49324         2.46283
O          3.72181         5.30625        -0.02340
O         11.74810        12.20990        -0.26269
O         19.53922        16.90225         1.03539
O         29.28794        17.75812        -2.34780
O         19.36046        10.66086         3.02003
O         23.60090        11.82193        -2.03303
O          7.00491         8.16528        -1.20718
O         27.17142         4.15295        -1.57323
O         20.04994        15.25389        -2.07100
O         27.22050        14.45069         0.58315
O         16.71489        10.12247         0.30370
O         26.35245         7.33155         1.73722
O          2.49880        10.09411         0.84945
O          5.07754        16.64506         2.79711
O          9.07178        14.36965         2.67621
O          7.41254        13.78131        -0.44733
O          7.31944        18.27681         2.15599
O         28.77971         7.75629        -1.80789
O          9.81451         8.00466         2.77646
O         27.62934         9.93967        -2.18378
O         11.96380        16.38103        -1.16539
H         11.15273        16.77187        -1.55383
O         24.96583        10.79531         1.22100
H         24.39106        10.52925         1.97147
O          4.92047        19.26454         2.64642
H          5.71704        18.85661         3.05810
O         20.68020         6.36812        -0.11086
H         21.43443         6.72349        -0.62681
O          2.90657         7.51377         0.92715
H          3.15145         6.59528         1.19308
O         13.54001        16.96757         2.09432
H         14.42890        16.75916         2.45244
O          2.59144        16.27988         2.25257
H          3.22128        16.11597         2.99294
O         14.57383        16.38965        -1.42219
H         13.62644        16.35692        -1.70560
O         28.98024         6.85295         1.40162
H         28.23467         7.21116         1.93904
O         29.64775        14.15983         1.25762
H         28.74780        14.01046         1.63255
H          1.85636         2.49772        -5.14308
H          1.41231         4.67332        -4.05403
H          3.93381         1.22197        -4.64243
H          1.67786         6.70387        -3.83724
H          1.30777         8.92250        -2.86406
H          0.49637        10.46965        -1.73982
H          0.50148        12.83393        -1.24640
H          0.54838        14.67359        -1.06903
H          0.74796        17.11712        -1.11864
H          1.73746        19.16180        -0.37075
H          6.04684         1.01041        -3.40231
H          3.49865        20.41522         0.78422
H          8.19538         0.81164        -2.20997
H          5.75414        19.61383        -0.51788
H         10.37490         0.64806        -1.14987
H          8.59755        20.10511        -0.33321
H         12.70908         0.55912        -0.23163
H         10.86550        20.14436        -0.13266
H         14.97270         0.50709         0.72846
H         13.30020        20.16495        -0.31895
H         17.20401         0.48467         1.10637
H         15.70341        20.19391        -0.66769
H         19.56326         0.43056         0.98091
H         18.16718        20.04707        -1.36949
H         21.91999         0.36669         0.37358
H         20.69601        20.04092        -1.68227
H         24.36864         0.31043        -0.18560
H         23.14547        20.02862        -1.58305
H         26.80130         0.27216        -0.73999
H         25.52555        20.05480        -1.31146
H         29.26303         0.20801        -1.23623
H         27.79795        20.16443        -0.53290
H         31.39833         1.40096        -1.48752
H         32.75215         3.47049        -1.41339
H         32.89765         5.94001        -1.19769
H         32.86504         7.85471         0.26486
H         32.88446        10.30885         0.33085
H         32.95513        12.30771        -0.19031
H         32.90404        14.71662        -0.64634
H         32.74476        16.69703        -1.03653
H         30.63087        20.37221        -0.70286
H         32.63116        19.03798        -0.94881
