         344
 CSIRO Nanostructure Databank - Neutral Graphene Oxide Data Set
C          1.24406         3.45246         1.08782
C          0.05482         4.14325         1.06836
C          1.21642         6.26973         0.73352
C          0.04102         5.54596         0.86882
C          1.17622         7.74532         0.35728
C          0.00015         8.52371         0.91030
C          1.23738        10.64314         0.66069
C          0.04312         9.86847         0.99819
C          1.20062        12.04512         0.42420
C         -0.03135        12.81263         0.50010
C          1.06710        14.89106        -0.27156
C         -0.10378        14.13310         0.20539
C          1.09953        16.38387        -0.22376
C         -0.09564        17.10700        -0.18351
C          1.08220        19.19927        -0.56518
C         -0.10691        18.49189        -0.37558
C          1.05607        20.60934        -1.13264
C         -0.18180        21.42123        -0.80820
C          1.02755        23.50912        -0.23180
C         -0.20159        22.73038        -0.51006
C          1.05864        25.02673        -0.07714
C         -0.15724        25.83588        -0.23729
C          1.18728        27.87721        -0.33837
C         -0.07561        27.18591        -0.38038
C          1.23397        29.29735        -0.31485
C          3.70520         3.45084         0.91962
C          2.48117         4.14519         0.92040
C          3.71406         6.25206         0.62571
C          2.47044         5.57294         0.76204
C          3.73690         7.72413         0.76956
C          2.45358         8.47564         0.73307
C          3.66520        10.62667         0.25160
C          2.46245         9.95390         0.54135
C          3.62921        12.01526         0.00881
C          2.40168        12.70904         0.08032
C          3.63261        14.91936        -0.06510
C          2.36395        14.14178        -0.31792
C          3.59684        16.38638        -0.41825
C          2.33017        17.09124        -0.34656
C          3.57900        19.24217        -0.51425
C          2.31738        18.50645        -0.49333
C          3.58332        20.62328        -0.56282
C          2.35560        21.37681        -0.87562
C          3.56043        23.56820        -0.19124
C          2.32486        22.85014        -0.56297
C          3.56763        24.94867        -0.18601
C          2.35921        25.71048        -0.24030
C          3.65690        27.82511        -0.15929
C          2.39791        27.12746        -0.27780
C          3.66697        29.25905        -0.07680
C          2.42811        29.97079        -0.17921
C          6.15542         3.40944         0.68049
C          4.92885         4.11885         0.70669
C          6.16713         6.23367         0.23822
C          4.92703         5.55267         0.55100
C          6.20140         7.68417         0.06175
C          5.06145         8.48134         0.68003
C          6.21284        10.62142         0.02620
C          4.90826         9.81818        -0.09479
C          6.11542        11.99790        -0.58760
C          4.78108        12.68736        -0.71246
C          6.03113        14.86694        -0.66692
C          4.86592        14.19256        -0.53325
C          6.07234        16.34806        -0.94123
C          4.78955        17.06510        -0.57777
C          6.06472        19.15819        -0.37507
C          4.83555        18.50350        -0.51062
C          6.01338        20.56851         0.16696
C          4.88512        21.39510        -0.48561
C          6.07779        23.50822         0.15078
C          4.76120        22.76408         0.22725
C          6.09997        24.89358         0.07289
C          4.88529        25.64928        -0.42053
C          6.09758        27.78781         0.08732
C          4.87140        27.11345        -0.07798
C          6.11068        29.22586         0.16266
C          4.88773        29.93301         0.07641
C          8.60757         3.38283         0.37872
C          7.36431         4.06874         0.39122
C          8.52295         6.03441        -0.61122
C          7.32577         5.48481         0.11060
C          8.52021         7.56133        -0.83028
C          7.30867         8.34232        -0.44033
C          8.54876        10.48614        -0.80678
C          7.40817         9.80642        -0.46292
C          8.53971        11.95976        -0.94516
C          7.27169        12.68604        -0.73881
C          8.60009        14.88574        -0.62052
C          7.31301        14.14162        -0.39499
C          8.56070        16.33319        -0.43407
C          7.34519        17.04027        -0.49272
C          8.54660        19.18090        -0.18195
C          7.31851        18.45594        -0.34304
C          8.53005        20.63674        -0.00505
C          7.31582        21.33376         0.09975
C          8.53675        23.46422         0.33696
C          7.30404        22.75435         0.22074
C          8.55072        24.90354         0.33927
C          7.33582        25.61507         0.18276
C          8.55514        27.75673         0.28194
C          7.33560        27.05527         0.16940
C          8.56603        29.20142         0.32201
C          7.34433        29.90484         0.28035
C         11.10949         3.43260         0.42257
C          9.84208         4.08159         0.22735
C         11.03540         6.24295        -0.00385
C          9.81348         5.44761        -0.10627
C         11.04072         7.69863        -0.38681
C          9.81367         8.32274        -0.97419
C         11.09291        10.54594        -0.67003
C          9.85726         9.84062        -1.21616
C         11.10236        11.99038        -0.68359
C          9.83180        12.73667        -0.93366
C         11.04917        14.84683        -0.15336
C          9.77781        14.19274        -0.62374
C         11.04608        16.35180        -0.27955
C          9.79284        17.04960        -0.28705
C         11.05251        19.18750        -0.25111
C          9.76262        18.46867        -0.21065
C         11.03765        20.67010        -0.05468
C          9.75046        21.36346         0.15094
C         11.01403        23.44579         0.83998
C          9.75382        22.73733         0.40005
C         11.03791        24.91788         0.51243
C          9.79492        25.61681         0.38294
C         11.02434        27.75271         0.40729
C          9.79233        27.04036         0.35261
C         11.02926        29.19194         0.42843
C          9.79876        29.88672         0.40371
C         13.57273         3.42694         0.36449
C         12.32689         4.11287         0.31305
C         13.50328         6.27372        -0.01850
C         12.33328         5.55615         0.10286
C         13.51727         7.69381        -0.31266
C         12.33474         8.39674        -0.52658
C         13.55385        10.53956        -0.41136
C         12.31063         9.84143        -0.56864
C         13.51815        12.00222        -0.05183
C         12.26954        12.70104        -0.51335
C         13.54774        14.89040        -0.28493
C         12.28792        14.19463        -0.76141
C         13.52993        16.27894        -0.13965
C         12.27813        17.01862        -0.19058
C         13.52091        19.11516         0.16942
C         12.32146        18.44394        -0.06372
C         13.51621        20.54612         0.64675
C         12.29025        21.35659         0.30717
C         13.55131        23.40428         0.67109
C         12.29477        22.71040         0.49800
C         13.52306        24.89038         0.94962
C         12.24191        25.60490         0.56021
C         13.47166        27.77117         0.39272
C         12.25579        27.04025         0.44427
C         13.48393        29.18858         0.43453
C         12.26278        29.88506         0.48186
C         16.02462         3.44056         0.23652
C         14.79688         4.10700         0.26538
C         15.95232         6.20065        -0.52175
C         14.82123         5.62252         0.32622
C         15.99076         7.70720        -0.41167
C         14.78435         8.40129        -0.39261
C         16.02871        10.54404        -0.50727
C         14.77176         9.84726        -0.43735
C         16.03495        12.03277        -0.76756
C         14.78076        12.76056        -0.36247
C         16.01330        14.88452        -0.07382
C         14.78088        14.15267        -0.25220
C         15.99347        16.26239         0.05472
C         14.76298        17.00661         0.02514
C         16.02110        19.15705         0.24917
C         14.76193        18.40835         0.19887
C         16.00636        20.61751         0.32896
C         14.80760        21.29980         0.44708
C         16.04060        23.46053         0.96748
C         14.75976        22.73280         0.62414
C         16.04478        24.90373         0.53688
C         14.74807        25.55118         0.34074
C         16.00642        27.76628         0.27253
C         14.73034        27.05358         0.14379
C         15.95925        29.21992         0.33763
C         14.74910        29.88356         0.38741
C         18.50949         3.48988         0.29116
C         17.26478         4.15116         0.11606
C         18.46614         6.26042        -0.29013
C         17.26263         5.53778        -0.18555
C         18.45058         7.68592        -0.52724
C         17.24429         8.39845        -0.49769
C         18.50663        10.56135        -0.51096
C         17.23542         9.85090        -0.54409
C         18.49474        12.00439        -0.29050
C         17.29945        12.69293        -0.29098
C         18.51300        14.86675        -0.29032
C         17.28132        14.11176         0.22652
C         18.54707        16.29785         0.21613
C         17.24576        17.01804         0.29970
C         18.48622        19.19201        -0.23932
C         17.22174        18.48723         0.18386
C         18.50580        20.65350         0.14344
C         17.27775        21.34641         0.34109
C         18.50793        23.48063         0.44308
C         17.29423        22.73823         0.54852
C         18.50420        24.91815         0.45131
C         17.22238        25.62183         0.43220
C         18.46544        27.81667         0.67976
C         17.19472        27.06890         0.35667
C         18.41310        29.27161         0.26548
C         17.21225        29.93201         0.23410
C         19.69993         4.19763         0.20671
C         20.93505         6.33556        -0.10244
C         19.70249         5.58000        -0.06952
C         20.96264         7.64845        -0.42159
C         19.73697         8.39207        -0.89217
C         20.93161        10.57348        -0.30511
C         19.71358         9.86753        -0.53650
C         20.95480        11.92156        -0.04412
C         19.76137        12.70548        -0.06867
C         20.98873        14.87931         0.07370
C         19.79726        14.11125        -0.01436
C         21.00745        16.26495         0.06880
C         19.81710        17.05561         0.05234
C         20.98386        19.23156         0.02366
C         19.78531        18.44990         0.03344
C         20.96130        20.59953         0.04783
C         19.72882        21.34580         0.15326
C         20.94473        23.52856         0.19384
C         19.74078        22.77834         0.27093
C         20.92992        24.90511         0.21331
C         19.71159        25.63259         0.30607
C         20.83337        27.81849        -0.08766
C         19.71648        27.09139         0.23716
C         20.81615        29.25377        -0.14621
C         19.65538        29.95638         0.01673
O          1.65323        14.39496        -1.55864
O          3.00857         8.08459         2.03103
O          1.04067        24.10025         1.10401
O         10.82004         7.32791         1.02837
O          9.18003        12.41900        -2.20145
O         14.59234        26.11478        -0.99568
O         17.96204        16.54096         1.54630
O          2.50276        22.38182        -1.97187
O         11.13275        20.09928        -1.42590
O          9.16064         7.75214        -2.15387
O         11.12535        14.54949         1.28335
H         10.30055        14.87824         1.70203
O         18.40189        19.19390        -1.72476
H         19.13951        19.75231        -2.05259
O         18.37581        14.94190        -1.73658
H         19.17080        15.38913        -2.09544
O         13.62991        25.02350         2.40670
H         14.44781        24.53174         2.68040
O          7.32001        14.08682         1.11167
H          6.90410        13.23401         1.38573
O         12.21796        14.40643        -2.19557
H         12.96180        13.92691        -2.61669
O          6.12119        16.42504        -2.41376
H          6.18973        17.37246        -2.65942
O          8.36620         5.41650        -1.94100
H          8.82841         6.00708        -2.58221
O          5.01985        25.61675        -1.89278
H          5.84737        26.09234        -2.12034
O         13.43230        12.01316         1.43383
H         13.05365        12.88075         1.69975
O         13.40593        20.39644         2.12052
H         13.48009        21.29374         2.51263
O          5.75323        20.31441         1.57545
H          5.52885        21.16933         2.01408
O         17.36864        13.96972         1.66718
H         17.47893        14.88102         2.04079
O          0.98394        20.38372        -2.57201
H          1.34255        21.19571        -2.99911
O          4.75426         9.45675        -1.48861
H          4.64048        10.29117        -2.00098
O         19.80317         8.36102        -2.37217
H         19.90486         7.42130        -2.63463
O          4.48378        22.54508         1.65649
H          4.34319        23.42227         2.07273
O         15.64022         5.87654        -1.91051
H         16.34235         6.26270        -2.47453
O         16.06219        12.16673        -2.24857
H         16.93991        11.85171        -2.55555
O         10.99322        23.40063         2.31434
H         11.73336        23.97347         2.62707
O         15.11541         5.98672         1.70356
H         14.35897         5.70629         2.25987
O          3.74491        14.88568         1.40490
H          4.59859        15.30218         1.65282
O         18.53585        27.82711         2.15663
H         19.33036        28.34828         2.40049
O          4.42245        12.49066        -2.13551
H          3.63174        13.04310        -2.32632
O         10.01933        10.01915        -2.64834
H          9.34627         9.45293        -3.08872
O         16.04072        23.50099         2.45982
H         16.90154        23.88323         2.73888
O          1.10037         7.79972        -1.09681
H          0.28326         7.33751        -1.37703
O          5.46348         8.71233         2.05662
H          4.63208         8.69526         2.59426
O          6.46969        10.99738         1.41529
H          6.32088        10.19126         1.97710
O          5.28916        21.67241        -1.84548
H          4.52183        22.10303        -2.29155
H          1.25605         2.36104         1.21983
H         -0.89899         3.61057         1.18704
H         -0.93338         6.05221         0.81447
H         -0.92790         7.99736         1.17824
H         -0.85064        10.40771         1.34487
H         -0.94250        12.30324         0.84416
H         -1.05650        14.66038         0.35844
H         -1.05618        16.58441        -0.08055
H         -1.07515        19.00745        -0.42208
H         -1.14598        20.92001        -0.98176
H         -1.16781        23.23557        -0.36031
H         -1.13601        25.33783        -0.20325
H         -0.99358        27.78411        -0.47994
H          0.28998        29.85811        -0.38034
H          3.70627         2.36067         1.06779
H          2.44358        31.06952        -0.14145
H          6.15313         2.32298         0.85280
H          4.89897        31.03219         0.11988
H          8.62615         2.30689         0.60638
H          7.35263        31.00396         0.32277
H         11.11881         2.35056         0.62113
H          9.80059        30.98634         0.43481
H         13.57009         2.32749         0.42220
H         12.26330        30.98451         0.51440
H         16.04998         2.34356         0.32794
H         14.73833        30.98388         0.40375
H         18.52094         2.41391         0.51669
H         17.18597        31.01824         0.05469
H         20.65873         3.68287         0.36623
H         21.86859         5.81197         0.15520
H         21.93584         8.15672        -0.46618
H         21.88737        10.03399        -0.32257
H         21.92229        12.40838         0.13851
H         21.95561        14.36056         0.14613
H         21.98557        16.76506         0.09101
H         21.95781        18.72262         0.03844
H         21.91877        21.13555         0.05584
H         21.91112        23.01711         0.09861
H         21.88444        25.44358         0.14435
H         21.77613        27.31575        -0.34549
H         21.75277        29.77945        -0.37814
H         19.64081        31.04927        -0.10843
