         429
 CSIRO Nanostructure Databank - Neutral Graphene Oxide Data Set
C          1.26135         1.91788         0.35062
C          1.22318         3.31670         0.33379
C          2.47256         1.24107         0.32042
C          2.41079         4.08053         0.29169
C          1.17212         6.26341         0.24910
C          1.16210         7.64494         0.18822
C          2.38323         5.53175         0.23310
C          2.36553         8.38651         0.05110
C          1.18412        10.59790        -0.05840
C          1.16691        12.01867         0.01895
C          2.35172         9.85384         0.01586
C          2.30653        12.76192         0.28111
C          1.17760        14.98586         0.49523
C          1.20052        16.40580         0.45114
C          2.32032        14.20764         0.35270
C          2.39894        17.13345         0.45068
C          2.39502        18.56586         0.20228
C          3.69723         1.96139         0.28565
C          3.66305         3.39755         0.28066
C          4.93157         1.27491         0.24591
C          4.89317         4.13261         0.28167
C          3.61007         6.26023         0.14943
C          3.58584         7.68484         0.01995
C          4.85027         5.54788         0.24578
C          4.83481         8.45023        -0.36093
C          3.61757        10.55723         0.18586
C          3.57450        12.01410         0.50641
C          4.81092         9.89385         0.09831
C          4.88355        12.76805         0.50195
C          3.60274        14.93350        -0.01050
C          3.61898        16.36287         0.46329
C          4.89035        14.22461         0.32429
C          4.83850        16.93090         0.74235
C          3.46883        19.39791        -0.01858
C          4.82847        19.03192         0.31867
C          6.16376         1.97024         0.22296
C          6.14513         3.40788         0.26846
C          7.40187         1.27949         0.15387
C          7.38550         4.08896         0.25801
C          6.09572         6.32120         0.33094
C          6.12188         7.74969        -0.01512
C          7.39860         5.56715         0.35157
C          7.32214         8.44221        -0.09879
C          6.11487        10.56212         0.48846
C          6.13121        12.04675         0.25563
C          7.33151         9.88551        -0.07806
C          7.31962        12.73900         0.04114
C          6.09503        14.89324         0.31570
C          6.10503        16.34753         0.40530
C          7.35202        14.18483         0.15708
C          7.25273        17.11303         0.22595
C          6.03790        19.31459        -0.27172
C          7.25895        18.54566        -0.02928
C          8.63560         1.96663         0.14217
C          8.60480         3.39690         0.20536
C          9.89974         1.30261         0.09049
C          9.88440         4.12633         0.31531
C          8.58028         6.24721        -0.29500
C          8.59206         7.74272        -0.17669
C          9.87853         5.62314         0.15296
C          9.77474         8.40664        -0.41595
C          8.48713        10.59865        -0.34633
C          8.54388        12.03273        -0.24000
C          9.71022         9.85792        -0.71427
C          9.75307        12.76123        -0.40630
C          8.54023        14.89203         0.04926
C          8.58239        16.38733         0.35049
C          9.76825        14.18977        -0.24449
C          9.69085        17.04245        -0.46990
C          8.48145        19.20255        -0.25403
C          9.74088        18.54357        -0.31731
C         11.13025         2.00288         0.02739
C         11.15235         3.42735         0.07725
C         12.38372         1.32463        -0.10142
C         12.35168         4.15664        -0.10895
C         11.11808         6.31181        -0.23655
C         11.05427         7.70271        -0.48400
C         12.33909         5.59961        -0.25097
C         12.27554         8.41078        -0.63709
C         10.97837        10.62314        -0.90245
C         10.99125        12.09718        -0.70027
C         12.24385         9.88859        -0.60576
C         12.19082        12.79809        -0.81286
C         10.99548        14.88305        -0.35676
C         10.99885        16.34738        -0.15366
C         12.21835        14.22099        -0.63874
C         12.27710        17.10704        -0.29330
C         10.94536        19.22817        -0.42902
C         12.22424        18.57590        -0.50182
C         13.57622         2.01802        -0.21739
C         13.58660         3.44974        -0.25009
C         14.85319         1.23143        -0.42849
C         14.80882         4.17752        -0.44935
C         13.55033         6.30422        -0.52738
C         13.51145         7.73588        -0.67929
C         14.77533         5.57627        -0.59504
C         14.75632         8.49191        -0.79788
C         13.50791        10.65553        -0.71770
C         13.43078        12.05606        -1.27901
C         14.77458         9.91157        -0.84488
C         14.72502        12.79647        -1.07176
C         13.43585        14.97209        -0.82542
C         13.49602        16.36640        -0.67473
C         14.66659        14.25704        -1.23018
C         14.71092        17.11435        -0.77516
C         13.42298        19.25119        -0.61388
C         14.68969        18.55383        -0.62774
C         16.11674         2.03810        -0.23832
C         16.07957         3.45679        -0.38864
C         17.32668         1.38671        -0.04166
C         17.29754         4.16758        -0.35235
C         16.00236         6.30494        -1.08612
C         15.98837         7.79751        -0.78837
C         17.30762         5.59832        -0.71664
C         17.16988         8.53667        -0.61676
C         15.96975        10.65537        -0.89548
C         15.93050        12.12443        -1.00774
C         17.18984         9.95829        -0.67778
C         17.17928        12.86758        -1.02073
C         15.98257        15.02273        -1.24238
C         15.96182        16.45670        -0.90816
C         17.22891        14.25739        -1.05815
C         17.17513        17.14726        -0.73308
C         15.89490        19.24596        -0.52008
C         17.15649        18.57279        -0.50941
C         18.55129         2.10386         0.12198
C         18.51534         3.53321         0.00780
C         19.78316         1.44423         0.35362
C         19.70366         4.28562         0.33775
C         18.52216         6.38357        -0.33409
C         18.37265         7.84578        -0.12447
C         19.68769         5.72399         0.29115
C         19.61858         8.63406         0.15064
C         18.43294        10.68042        -0.56232
C         18.43687        12.10232        -0.97287
C         19.62875        10.05657        -0.21005
C         19.72031        12.86564        -0.84990
C         18.45983        15.01022        -0.86845
C         18.43009        16.43977        -0.74016
C         19.68589        14.33517        -0.73660
C         19.64056        17.14618        -0.51425
C         18.36090        19.26214        -0.30581
C         19.62834        18.59911        -0.31568
C         20.97502         2.16796         0.60258
C         20.88203         3.59576         0.68894
C         22.23626         1.53104         0.83085
C         22.04718         4.33081         1.18337
C         20.82109         6.50068         0.56050
C         20.88623         7.90856         0.31038
C         22.01971         5.86766         1.11136
C         22.08930         8.62778         0.36802
C         20.89484        10.72675        -0.15776
C         20.90550        12.22773        -0.16194
C         22.08324        10.05669         0.12653
C         22.16990        12.83734        -0.75350
C         20.90310        15.02673        -0.46745
C         20.85465        16.43665        -0.36793
C         22.17038        14.32044        -0.40805
C         22.06845        17.17468         0.02152
C         20.81348        19.30495        -0.13563
C         22.14602        18.63794        -0.35346
C         23.41822         2.25536         1.10588
C         23.35561         3.67367         1.23368
C         24.70171         1.62484         1.29655
C         24.51262         4.43964         1.48512
C         23.29605         6.58071         1.03590
C         23.31824         7.95135         0.69644
C         24.48334         5.87874         1.36938
C         24.54939         8.68955         0.74943
C         23.35263        10.79208         0.12209
C         23.39848        12.11177        -0.28102
C         24.57089        10.07888         0.47408
C         24.69116        12.81127        -0.58386
C         23.36822        14.97626        -0.17380
C         23.36496        16.41731         0.15533
C         24.64743        14.31254        -0.27692
C         24.62514        17.17729         0.14539
C         23.36302        19.30430         0.23094
C         24.58673        18.61373         0.32447
C         25.83378         2.32579         1.66810
C         25.74652         3.76637         1.80547
C         27.11857         1.52844         1.95343
C         26.81610         4.58287         2.22440
C         25.69459         6.62039         1.45540
C         25.75154         8.00262         1.11624
C         26.85495         5.97422         1.96873
C         27.00509         8.69464         1.12328
C         25.81104        10.79220         0.53378
C         25.85964        12.13111         0.07443
C         27.02036        10.08654         0.87102
C         27.12351        12.80106        -0.03519
C         25.82346        15.04275        -0.17608
C         25.83670        16.48133         0.08389
C         27.12920        14.36430        -0.24046
C         27.06878        17.19425         0.26355
C         25.82217        19.29421         0.53263
C         27.06446        18.61337         0.49324
C         28.43114         2.13715         1.45354
C         28.77730         3.41387         1.93880
C         29.36606         1.46009         0.66011
C         29.89397         4.13746         1.46774
C         28.06369         6.73580         2.03224
C         28.21813         7.99123         1.47972
C         30.02549         5.57756         1.67248
C         29.60479         8.64969         1.48167
C         28.30172        10.75087         0.83297
C         28.25821        12.26793         0.79711
C         29.48371        10.06615         0.94872
C         29.54484        12.98644         0.52774
C         28.33326        15.08220         0.10619
C         28.32281        16.50552         0.23038
C         29.55948        14.35008         0.26885
C         29.53914        17.22071         0.25721
C         28.30679        19.28743         0.67499
C         29.55411        18.62349         0.52838
C         30.58309         2.09211         0.25220
C         30.74773         3.47434         0.56256
C         31.68274         1.39016        -0.33713
C         31.80753         4.24966        -0.07830
C         30.87922         6.38786         0.95046
C         30.80345         7.84383         0.85503
C         32.10987         5.63648         0.45933
C         31.90879         8.51786         0.33826
C         30.70315        10.76630         0.49506
C         30.78844        12.24342         0.70132
C         31.92905         9.99694         0.20122
C         32.07078        12.94641         0.37824
C         30.81606        15.06014         0.11966
C         30.79288        16.53495        -0.21993
C         31.99903        14.38089         0.05828
C         32.07307        17.22605         0.19024
C         30.80986        19.28673         0.68403
C         32.06240        18.60505         0.57244
C         32.92404         2.01876        -0.60512
C         32.97400         3.49473        -0.68532
C         34.13064         1.32644        -0.76863
C         34.27731         4.20414        -0.73250
C         33.00087         6.39143        -0.51319
C         33.12490         7.83363        -0.09612
C         34.31698         5.63838        -0.65353
C         34.28632         8.49354        -0.40461
C         33.20268        10.72893         0.00869
C         33.25256        12.14970        -0.03140
C         34.30037         9.95854        -0.51518
C         34.44274        12.83071        -0.27013
C         33.23820        15.09846        -0.32666
C         33.28881        16.54413         0.02238
C         34.49921        14.29356        -0.45577
C         34.52415        17.19004         0.23742
C         33.30772        19.23471         0.83568
C         34.54596        18.55058         0.68934
C         35.40020         2.00170        -0.75800
C         35.45516         3.46387        -0.71201
C         36.57282         1.27273        -0.72702
C         36.73947         4.13636        -0.62170
C         35.54080         6.29880        -0.64302
C         35.62134         7.77047        -0.32790
C         36.78385         5.58894        -0.65451
C         36.79452         8.45815        -1.05874
C         35.68539        10.66305        -0.68830
C         35.69808        12.06586        -0.20947
C         36.89075         9.89737        -0.61912
C         37.00921        12.76126        -0.08090
C         35.82016        14.99804        -0.32596
C         35.80315        16.49450         0.01247
C         37.04295        14.22622        -0.03152
C         37.03414        17.08477         0.51696
C         35.80477        19.16955         0.94693
C         37.03915        18.44963         0.89635
C         37.88687         1.88529        -0.34627
C         37.90072         3.39513        -0.45521
C         39.07080         1.28945        -1.08643
C         39.19888         4.06390        -0.23842
C         38.01887         6.30289        -0.62660
C         38.08533         7.70291        -0.79909
C         39.28264         5.59113        -0.17262
C         39.32315         8.41196        -0.78082
C         38.17155        10.63859        -0.90485
C         38.24842        12.03878        -0.36570
C         39.41474         9.82427        -0.69354
C         39.46068        12.69462        -0.22978
C         38.25268        14.84750         0.19708
C         38.24885        16.23584         0.78477
C         39.48627        14.11052         0.11570
C         39.54815        16.96504         0.65164
C         38.30747        19.06501         1.12812
C         39.53577        18.36884         0.91158
C         40.25808         1.91666        -1.12542
C         40.44210         3.26487        -0.53505
C         41.72349         3.98545        -0.75087
C         40.53276         6.14456        -0.87274
C         40.57544         7.64679        -1.01164
C         41.77511         5.32463        -0.81806
C         41.84069         8.39646        -0.96808
C         40.65140        10.51412        -0.59871
C         40.69471        11.94274        -0.38646
C         41.86505         9.72984        -0.71793
C         41.89555        12.67141        -0.23681
C         40.72127        14.79137         0.22237
C         40.74901        16.24923         0.45839
C         41.90695        14.03689         0.04102
C         41.96001        16.97754         0.47807
C         40.78115        19.05184         0.94330
C         41.96349        18.35637         0.72062
O         31.90815         4.05251        -1.51312
O         30.98843        10.42273        -0.92047
O         29.17473         6.13013         2.63843
O         31.67596        12.66391         1.79042
O         10.24611        10.15892        -2.07441
O         18.67546         8.27020         1.24598
O         40.37495         6.73363        -2.19110
O          6.89396         6.09134         1.58967
O         21.78702         5.16232         2.37036
O         27.38917        13.39097        -1.33417
O         34.80384        10.42260        -1.84088
O         19.33160        12.33081        -2.14005
O          4.88229        18.15221         1.42253
O         18.33746         5.93954        -1.72829
O         15.26058        14.72698        -2.49698
O          4.20770        12.35044         1.80125
O         36.01783        15.97614        -1.38042
O         39.97259         3.42007         0.86544
O         27.92028         4.00909         2.87847
O         36.30271        12.16433         1.14053
O         33.74036        14.73531        -1.65616
O          9.90207         5.05530         1.48433
O         12.88842        10.46915         0.59619
O         11.71799        16.76062         1.04192
O         22.54577        16.80416         1.34101
O          9.38395        16.77184        -1.86403
H          9.97250        17.31732        -2.42604
O         38.10357        15.96256         2.25024
H         38.32058        16.79779         2.71955
O         35.97514         7.86738         1.08480
H         35.35964         7.29963         1.59585
O         27.22296         1.34691         3.37418
H         27.36425         2.23529         3.77120
O         32.33209         6.47709        -1.79078
H         32.90202         6.98071        -2.40756
O         15.89847         6.23095        -2.54393
H         16.81585         6.32414        -2.89226
O         22.36479        18.62918        -1.82106
H         22.34747        19.55984        -2.12960
O          3.58289        14.95509        -1.49303
H          2.78717        15.46465        -1.75838
O         20.86958        12.63681         1.23553
H         20.24187        12.05906         1.71788
O         29.99389         8.80525         2.88247
H         29.92148         7.91446         3.29632
O         32.94105         5.45066         1.64952
H         32.39513         5.03554         2.35083
O         27.87511        12.63267         2.17118
H         28.57163        12.29911         2.77702
O         38.10398        10.81499        -2.38380
H         37.90841         9.92432        -2.76762
O         22.11888        12.70441        -2.19107
H         23.04216        12.78473        -2.53134
O         38.06750         1.53434         1.07096
H         38.85669         2.04642         1.37832
O         14.86497         0.05567         0.38938
H         14.85575         0.33510         1.32756
O         30.74108        16.62468        -1.68760
H         31.55475        16.20231        -2.04042
O         36.55735         8.44140        -2.49691
H         35.80784         9.07035        -2.66079
O          6.20080        10.39400         1.95230
H          5.49103        10.96978         2.33175
O         13.30727        11.88932        -2.72593
H         13.52142        12.74709        -3.15165
O          8.44121         5.94763        -1.72165
H          8.99921         6.57589        -2.22792
O          8.96211        16.52861         1.74403
H          8.27664        16.10094         2.29804
O          4.82310         8.50247        -1.83882
H          3.97045         8.90406        -2.11155
O         24.87888        12.70898        -2.04751
H         25.81300        12.99336        -2.22312
O         39.43730         5.95148         1.22791
H         39.80691         5.16224         1.68824
H          0.31889         1.35338         0.38104
H          0.24441         3.81406         0.34663
H          2.49618         0.14204         0.32603
H          0.21155         5.73727         0.32853
H          0.19799         8.16918         0.23343
H          0.21977        10.09139        -0.20283
H          0.20606        12.53027        -0.13609
H          0.20394        14.49465         0.64281
H          0.24180        16.94493         0.45086
H          1.39749        18.98578        -0.01112
H          4.93250         0.17495         0.22922
H          3.27914        20.38838        -0.46144
H          7.39528         0.18027         0.11468
H          6.09802        20.12166        -1.01822
H          9.91599         0.20295         0.06242
H          8.46433        20.29578        -0.38924
H         12.40082         0.22480        -0.11342
H         10.93094        20.32993        -0.42477
H         14.84900         0.86520        -1.49525
H         13.43076        20.35052        -0.67046
H         17.33462         0.28881         0.02875
H         15.87944        20.33994        -0.40131
H         19.80724         0.34437         0.36671
H         18.33548        20.35069        -0.14524
H         22.28621         0.43340         0.77464
H         20.77555        20.39581         0.01356
H         24.76492         0.53307         1.16685
H         23.36211        20.40014         0.34560
H         26.99951         0.51138         1.50215
H         25.81173        20.38413         0.68278
H         29.16749         0.42404         0.34647
H         28.29682        20.36621         0.89188
H         31.61959         0.29409        -0.41421
H         30.81344        20.35725         0.93881
H         34.12995         0.22591        -0.75277
H         33.31723        20.28649         1.15888
H         36.52318         0.17335        -0.76052
H         35.82605        20.23282         1.22757
H         38.96073         0.28986        -1.53388
H         38.34439        20.13964         1.35845
H         41.11942         1.46276        -1.63936
H         42.64522         3.38549        -0.80401
H         42.74102         5.82520        -0.98114
H         42.78429         7.85335        -1.11876
H         42.83782        10.23806        -0.66386
H         42.86386        12.16277        -0.34342
H         42.88386        14.53267         0.12406
H         42.91909        16.46903         0.31326
H         40.80082        20.13302         1.14054
H         42.92178        18.89454         0.73923
