         429
 CSIRO Nanostructure Databank - Neutral Graphene Oxide Data Set
C          1.29380         3.35799         0.04281
C          0.15136         3.97611         0.42100
C          1.14892         6.21632         0.29114
C          0.04203         5.41822         0.45113
C          1.12763         7.67566         0.40381
C         -0.09281         8.39670         0.34566
C          1.10771        10.51170         0.42342
C         -0.10250         9.77515         0.42347
C          1.12406        11.95557         0.42841
C         -0.05804        12.70883         0.64170
C          1.13745        14.80503         0.31019
C         -0.04659        14.08864         0.61882
C          1.14270        16.27051         0.24044
C         -0.02250        17.04982         0.57207
C          1.08067        19.17888         0.05634
C         -0.04340        18.42572         0.50296
C          1.11817        20.59821        -0.02416
C         -0.08051        21.37254         0.06793
C          1.15165        23.48480        -0.09567
C         -0.06834        22.74273         0.01498
C          1.15989        24.89888        -0.16388
C         -0.04440        25.68987         0.01554
C          1.12732        27.71513        -0.82762
C         -0.05999        27.02409        -0.20247
C          1.14915        29.21633        -0.63345
C         -0.03063        29.94671        -0.81120
C          1.18208        32.06122        -0.66573
C         -0.01932        31.33851        -0.82183
C          1.21230        33.51334        -0.77479
C          0.06732        34.23688        -1.17407
C          1.30872        36.32409        -1.13662
C          0.11387        35.60727        -1.37320
C          1.38328        37.74189        -1.44220
C          3.76119         3.49506        -0.46361
C          2.43536         4.18358        -0.51113
C          3.59614         6.19927         0.45417
C          2.44732         5.56868         0.09973
C          3.59646         7.64561         0.90094
C          2.33901         8.38161         0.49416
C          3.57019        10.51239         0.15422
C          2.34340         9.80252         0.38473
C          3.58104        11.90744         0.01562
C          2.34447        12.64863         0.19726
C          3.54537        14.74676        -0.37411
C          2.31708        14.06565         0.07375
C          3.53823        16.25538        -0.52023
C          2.28671        16.95398        -0.15399
C          3.63898        19.15471        -0.33563
C          2.25427        18.40202        -0.33127
C          3.60861        20.60153        -0.07397
C          2.37268        21.30920        -0.13042
C          3.62897        23.43771        -0.19368
C          2.38740        22.74090        -0.14244
C          3.64464        24.88961        -0.23533
C          2.39961        25.61615        -0.29508
C          3.62471        27.76186        -0.37135
C          2.41161        27.01794        -0.44796
C          3.60439        29.17546        -0.37545
C          2.36998        29.91289        -0.44629
C          3.62420        32.06818        -0.20158
C          2.38770        31.34403        -0.44779
C          3.63311        33.51061        -0.19424
C          2.42677        34.22427        -0.52339
C          3.64811        36.43212        -0.24818
C          2.44535        35.63537        -0.67819
C          3.77815        37.76233        -0.95984
C          2.56713        38.40936        -1.41349
C          6.14350         3.42499         0.01258
C          4.91052         4.07420         0.06364
C          6.12535         6.20414         0.58355
C          4.84692         5.41357         0.76828
C          6.08218         7.63817         0.41906
C          4.86913         8.33041         0.45970
C          6.11262        10.41234        -0.37238
C          4.80014         9.70165        -0.04328
C          6.09277        11.91529        -0.64753
C          4.81970        12.63243        -0.20598
C          6.06132        14.77195        -0.35360
C          4.82470        14.01444        -0.27187
C          6.03101        16.19293        -0.33195
C          4.83510        16.96960        -0.35046
C          6.04628        19.06614         0.37152
C          4.84216        18.35297        -0.11186
C          6.07921        20.57558         0.37216
C          4.82646        21.30414         0.04484
C          6.14070        23.37220        -0.25922
C          4.83899        22.69995        -0.10379
C          6.12549        24.89624        -0.26846
C          4.84157        25.60751        -0.17671
C          6.06618        27.72866         0.10003
C          4.87079        27.04531        -0.15948
C          6.16769        29.17015        -0.08464
C          4.85595        29.93185        -0.33597
C          6.02600        32.05550         0.52961
C          4.81830        31.36647        -0.04487
C          6.09013        33.50805         0.14609
C          4.88413        34.21044        -0.07903
C          6.14010        36.32295        -0.19142
C          4.93237        35.64078        -0.23971
C          6.19757        37.75309        -0.51434
C          4.99064        38.38623        -1.01613
C          8.66327         3.41840         0.26401
C          7.34310         4.00381         0.69684
C          8.56272         6.24505         0.70410
C          7.32849         5.52400         0.64510
C          8.57308         7.63742         0.50939
C          7.34264         8.35380         0.27399
C          8.58696        10.49946         0.09977
C          7.36069         9.73735         0.01711
C          8.55253        11.94313        -0.04680
C          7.35497        12.64136        -0.23733
C          8.55038        14.78684        -0.65421
C          7.30451        14.06940        -0.31461
C          8.57060        16.28348        -0.62350
C          7.31554        16.90341        -0.10175
C          8.61913        19.11512         0.22793
C          7.34919        18.33759         0.30503
C          8.60524        20.56291         0.36041
C          7.39186        21.27275         0.30952
C          8.57738        23.43673         0.16618
C          7.39727        22.69584         0.11503
C          8.54522        24.87139         0.16418
C          7.35458        25.57093         0.12452
C          8.58688        27.75624         0.66237
C          7.28988        26.99784         0.48393
C          8.59013        29.22802         0.55420
C          7.37535        29.91829         0.36741
C          8.54924        32.04451         0.65735
C          7.34643        31.32300         0.41405
C          8.51313        33.48545         0.61939
C          7.33383        34.18783         0.26740
C          8.56866        36.33955         0.20683
C          7.36864        35.62592         0.09491
C          8.56251        37.84761         0.26236
C          7.36430        38.45060        -0.40486
C         11.05049         3.44783         0.19805
C          9.85987         3.97450         0.94800
C         11.10320         6.25448         0.78937
C          9.81662         5.50634         0.99581
C         11.04326         7.69154         0.51991
C          9.82510         8.37781         0.48914
C         11.08638        10.52294         0.24543
C          9.78889         9.81063         0.34731
C         11.10829        11.99224         0.01540
C          9.81492        12.75316         0.18295
C         11.20996        14.83484        -0.73665
C          9.84694        14.04181        -0.63658
C         11.09950        16.22503        -0.03202
C          9.84747        17.02124        -0.35699
C         11.08054        19.13565         0.38176
C          9.80516        18.43452         0.11708
C         11.08987        20.61018         0.37694
C          9.86312        21.27159         0.37772
C         11.13113        23.43143         0.22265
C          9.84550        22.75485         0.62411
C         11.11950        24.87673        -0.00946
C          9.81022        25.63694         0.06272
C         11.06010        27.76213         0.40967
C          9.85994        27.06075         0.40228
C         11.07925        29.19299         0.67021
C          9.81538        29.92370         0.72837
C         11.02379        32.04211         1.19686
C          9.77933        31.33620         0.83487
C         11.04107        33.54120         1.19445
C          9.72880        34.26172         0.91412
C         11.02449        36.34224         0.47284
C          9.79009        35.67228         0.49709
C         11.06042        37.75066         0.05725
C          9.87803        38.43523        -0.15399
C         13.42354         3.51395        -0.45389
C         12.25765         4.15696         0.04284
C         13.55314         6.25432         0.26163
C         12.34594         5.54848         0.40311
C         13.61717         7.68491         0.46083
C         12.33586         8.37710         0.71344
C         13.63216        10.58464         0.74099
C         12.32228         9.85578         0.75357
C         13.60693        12.07754         0.55784
C         12.35375        12.77919         0.22236
C         13.63241        14.85273         0.01042
C         12.38306        14.11107        -0.08684
C         13.63478        16.28863        -0.07066
C         12.36062        17.03575        -0.39525
C         13.63073        19.17302         0.09125
C         12.37746        18.40251         0.25406
C         13.57850        20.58477         0.24409
C         12.36381        21.29574         0.36889
C         13.57287        23.50286         0.17503
C         12.35488        22.75866         0.30358
C         13.57412        24.92482         0.11323
C         12.35225        25.64602         0.16331
C         13.55503        27.76152         0.32794
C         12.32163        27.05268         0.26197
C         13.55671        29.19660         0.47913
C         12.30316        29.86760         0.70284
C         13.58433        32.06812         0.82111
C         12.34643        31.29909         1.05795
C         13.55989        33.51499         0.88246
C         12.30604        34.25826         0.96169
C         13.49537        36.43288         0.73566
C         12.25126        35.64013         0.71617
C         13.53699        37.79089         0.14384
C         12.31610        38.40000        -0.16866
C         15.84615         3.51272        -0.93875
C         14.66880         4.17636        -0.49066
C         16.00024         6.23519        -0.10534
C         14.74830         5.55807        -0.11005
C         16.05235         7.68180         0.06826
C         14.80309         8.40217         0.27733
C         16.03697        10.57384         0.14500
C         14.86354         9.85343         0.38998
C         16.07644        12.01027         0.16729
C         14.87726        12.74319         0.25071
C         16.11097        14.89898         0.40620
C         14.84035        14.15191         0.14926
C         16.07709        16.26724        -0.23270
C         14.81405        17.02777        -0.04998
C         16.10680        19.16356        -0.26471
C         14.83301        18.46523        -0.11172
C         16.12230        20.61282        -0.10912
C         14.87966        21.28573         0.32191
C         16.10454        23.50599        -0.05616
C         14.86850        22.81642         0.30370
C         16.03318        24.95790        -0.43924
C         14.79680        25.66325         0.05397
C         16.06235        27.79783         0.46435
C         14.78038        27.04375         0.21092
C         16.00825        29.22081        -0.08471
C         14.75542        29.93447         0.39667
C         16.04316        32.05472         0.41472
C         14.77654        31.35865         0.53814
C         16.04037        33.54887         0.32443
C         14.75712        34.20802         0.70312
C         16.05339        36.37294         0.45848
C         14.80665        35.66543         0.79733
C         16.03115        37.76130         0.11811
C         14.77562        38.41757        -0.08239
C         18.28930         3.50985        -1.38598
C         17.07915         4.16538        -0.93195
C         18.47351         6.12865        -0.31038
C         17.16007         5.51154        -0.45573
C         18.52062         7.67895        -0.08169
C         17.24306         8.38307        -0.07083
C         18.56215        10.56568        -0.20354
C         17.23881         9.85250        -0.42393
C         18.59707        11.97473        -0.08160
C         17.34656        12.73846         0.04810
C         18.64357        14.91747         0.26934
C         17.37095        14.11136         0.13739
C         18.66378        16.20913        -0.62697
C         17.33949        16.98923        -0.56632
C         18.57868        19.17638        -0.60283
C         17.29613        18.46626        -0.44732
C         18.55777        20.68871        -0.58606
C         17.28637        21.35953        -0.26306
C         18.55327        23.53989        -0.33030
C         17.30044        22.80951        -0.18154
C         18.54803        24.96891        -0.28550
C         17.31720        25.69123        -0.16642
C         18.52682        27.80890        -0.00275
C         17.31216        27.06564         0.03310
C         18.49810        29.24801         0.18152
C         17.30480        29.94891         0.21422
C         18.53480        32.12417         0.38244
C         17.26648        31.38505         0.34507
C         18.54303        33.52551         0.58091
C         17.27551        34.22427         1.05291
C         18.47436        36.38555         0.58246
C         17.26646        35.69039         0.63267
C         18.49066        37.74724         0.14035
C         17.26505        38.40926        -0.11310
C         19.49362         4.15307        -1.41760
C         20.81091         6.23378        -1.07438
C         19.64202         5.50230        -0.93644
C         20.86556         7.63229        -0.82426
C         19.75903         8.37752        -0.45086
C         20.99675        10.53354        -0.31408
C         19.77069         9.83413        -0.34102
C         21.03051        11.91258        -0.19467
C         19.84422        12.66686        -0.08534
C         21.05563        14.85034        -0.12797
C         19.90401        14.12351        -0.01540
C         21.04131        16.30200        -0.04872
C         19.90475        17.01396        -0.25284
C         21.06067        19.28941        -0.42783
C         19.82914        18.51163        -0.03922
C         21.03670        20.64878        -0.53392
C         19.82923        21.42094        -0.43059
C         21.01361        23.60991        -0.40154
C         19.80117        22.83895        -0.38587
C         21.00078        24.97832        -0.38983
C         19.77235        25.70994        -0.32143
C         20.93170        27.93579        -0.51380
C         19.74466        27.13289        -0.25925
C         20.95705        29.25735        -0.25674
C         19.81819        29.93352         0.46507
C         20.96148        32.17706         0.27425
C         19.76988        31.43832         0.28774
C         20.95687        33.56610         0.40899
C         19.74974        34.24258         0.63143
C         20.95720        36.47218         0.90064
C         19.69986        35.69356         1.12414
C         20.94687        37.73943         0.37015
C         19.74859        38.39620         0.01630
O         14.19987        36.26859         1.99866
O          9.10218        14.09322        -1.84083
O          9.27411        16.92445        -1.71364
O          5.35433         9.73272        -1.42747
O          5.78632        29.59852        -1.44542
O          7.81902        27.27703         1.84034
O         11.52273        14.95159        -2.07402
O          2.91771        18.82576        -1.55942
O         18.63544        19.90109        -1.85845
O         18.70022         6.71928         1.00261
O         11.71253        31.52614         2.37677
O         10.41227        25.30980        -1.25114
O          3.41440        15.40026        -1.69911
O         10.23531        34.07459         2.29399
O         11.23785        11.08314        -1.12403
O         13.69310        11.46892         1.91183
O          7.44885        17.27384         1.32715
O         10.56001         5.98842         2.16562
O         17.27242        34.14321         2.42885
O         12.20084         9.13265         2.01107
O          5.87996        19.80377         1.62822
O         15.00707        22.05176         1.56307
O         11.78198        18.53612         1.58330
O         16.46559        16.42506        -1.63336
O          6.25142        24.11727        -1.51504
O          6.08500        12.06915        -2.09724
H          5.58518        11.30190        -2.46251
O         16.30506        33.90273        -1.08171
H         15.63305        33.45164        -1.63509
O         15.89553        29.11693        -1.53266
H         15.98380        30.01627        -1.91063
O          3.39557        36.76679         1.16551
H          4.15869        37.29779         1.47988
O          9.81862        22.91182         2.10102
H         10.49437        22.30661         2.47720
O          9.93555         3.49692         2.35830
H         10.39682         4.21466         2.85691
O         17.03800         9.87779        -1.88810
H         17.03073        10.81827        -2.16823
O          0.97484        27.53236        -2.28401
H          1.02694        26.56916        -2.46335
O          5.76612        32.06052         1.99782
H          6.48797        32.57639         2.41913
O          9.79190        13.22057         1.56266
H          9.91424        12.45470         2.16208
O          7.23175         3.55422         2.09372
H          8.15178         3.51693         2.47240
O         15.87903        24.96278        -1.91020
H         16.71002        24.61164        -2.29585
O         19.65267        18.67757         1.41382
H         20.22137        18.01941         1.86794
O         16.08501        15.19339         1.86136
H         15.83802        14.36451         2.32676
O         18.74986        15.35439         1.65384
H         17.83400        15.43765         2.02318
O         18.87825        15.80275        -1.99265
H         17.99900        15.78855        -2.43867
O         11.08335        15.95156         1.37618
H         11.18332        16.81124         1.85755
O          2.12901         4.36252        -1.93918
H          1.23733         4.76780        -1.99386
O         19.52677        35.59775         2.57110
H         18.68761        35.05605         2.73170
O         20.08128        29.72588         1.89703
H         19.38174        30.20011         2.39581
O          4.73845         5.12588         2.19441
H          4.64405         5.99545         2.65102
O         16.16011        27.94273         1.91070
H         16.22851        27.05023         2.30938
O         12.36078        17.32373        -1.80184
H         12.10133        16.46986        -2.27136
O          8.42479        38.18335         1.70222
H          9.17664        37.75944         2.17054
O          3.60204         7.65388         2.37890
H          2.72534         7.32655         2.67483
H          1.36257         2.26090         0.01680
H         -0.72196         3.38614         0.73574
H         -0.93526         5.85754         0.69484
H         -1.04404         7.85320         0.26534
H         -1.06708        10.29952         0.42161
H         -1.00485        12.19401         0.85150
H         -0.98460        14.62552         0.81033
H         -0.93076        16.53784         0.91565
H         -0.96117        18.95196         0.80042
H         -1.04644        20.85419         0.14139
H         -1.02651        23.27811         0.04770
H         -0.95426        25.19802         0.38799
H         -0.98683        27.59142        -0.03436
H         -0.98020        29.42222        -0.98478
H         -0.96978        31.86578        -0.97410
H         -0.87678        33.71240        -1.37027
H         -0.77971        36.14445        -1.72171
H          0.46793        38.24620        -1.78478
H          3.83631         2.51447        -0.96008
H          2.62757        39.45636        -1.74654
H          6.21115         2.41583        -0.42372
H          5.06975        39.40585        -1.42420
H          8.67755         2.32621         0.10214
H          7.39622        39.51609        -0.67917
H         11.02287         2.39185        -0.11076
H          9.91310        39.49433        -0.45189
H         13.36388         2.45989        -0.76281
H         12.31051        39.42671        -0.56429
H         15.77966         2.46857        -1.27799
H         14.77968        39.44714        -0.47075
H         18.20975         2.47453        -1.74796
H         17.27644        39.45917        -0.43917
H         20.38189         3.64172        -1.81718
H         21.70268         5.74463        -1.49295
H         21.81134         8.14249        -1.05441
H         21.94451         9.98350        -0.38336
H         22.00576        12.41687        -0.18138
H         22.03312        14.36414        -0.25839
H         21.99563        16.80932         0.16365
H         22.01916        18.76057        -0.53339
H         21.98821        21.17233        -0.70814
H         21.98032        23.09006        -0.42923
H         21.95513        25.52179        -0.39880
H         21.80556        27.45594        -0.97801
H         21.86364        29.83399        -0.48837
H         21.92933        31.66184         0.20939
H         21.91234        34.10903         0.41387
H         21.90058        36.05510         1.28138
H         21.89454        38.28863         0.26680
H         19.78361        39.44410        -0.31510
