         261
 CSIRO Nanostructure Databank - Neutral Graphene Oxide Data Set
C        -10.86717         0.84298        -1.24757
C         -9.92337         1.56520        -0.34072
C         -8.92310         0.73175         0.42328
C         -7.81922         1.28046         1.25148
C         -6.43808         0.70306         1.29944
C         -5.12050         1.48507         1.49662
C         -3.78737         0.72680         1.47125
C         -2.49059         1.51569         1.41611
C         -1.19582         0.76276         1.11031
C         -0.03085         1.47064         0.46855
C          1.03435         0.65653        -0.24167
C          2.25995         1.34592        -0.85106
C          3.57872         0.59740        -0.93233
C          4.90443         1.33910        -1.14676
C          6.15558         0.70342        -0.59446
C          7.49063         1.36449        -0.81129
C          8.64399         0.66470        -0.12348
C          9.83608         1.44101         0.29104
C         11.07981         0.67637         0.57666
C         -9.71828         3.02820        -0.53681
C         -8.55185         3.70003        -0.42936
C         -7.21828         3.06559        -0.18858
C         -6.29274         3.77339         0.79724
C         -5.12177         3.02394         1.41955
C         -3.80896         3.80438         1.51358
C         -2.49825         3.01999         1.34802
C         -1.18786         3.76154         0.92585
C         -0.18689         2.91431         0.07527
C          1.00657         3.59285        -0.54970
C          2.27676         2.85823        -0.96932
C          3.59959         3.58067        -1.22648
C          4.93444         2.83893        -1.40153
C          6.31922         3.65103        -1.61949
C          7.56479         2.84251        -1.08655
C          8.77679         3.54689        -0.55162
C          9.82467         2.89619         0.00963
C         -8.50117         5.19082        -0.76438
C         -7.35266         5.96538        -0.13130
C         -6.33372         5.30360         0.72751
C         -5.11833         6.09410         1.17408
C         -3.82657         5.31073         1.34083
C         -2.66434         5.95160         0.63088
C         -1.42163         5.13241         0.28256
C         -0.15839         5.84474        -0.11025
C          1.09309         5.09692        -0.51060
C          2.40835         5.79488        -0.64185
C          3.68789         4.98882        -0.69235
C          4.99484         5.70459        -0.63474
C          6.29687         5.19231        -1.26416
C          7.50714         5.73713        -0.50536
C          8.84274         5.05024        -0.69658
C         -7.27586         7.29746        -0.38444
C         -6.23953         8.19608         0.16561
C         -5.08207         7.59681         0.92665
C         -3.72633         8.34426         1.02122
C         -2.64224         7.43071         0.41385
C         -1.29445         8.10219         0.36491
C         -0.04884         7.29445         0.25704
C          1.28487         7.99206         0.21470
C          2.50611         7.22036        -0.16020
C          3.72448         7.99068        -0.55544
C          5.00258         7.21297        -0.66446
C          6.30417         7.88419        -0.33456
C          7.47792         7.02061        -0.07046
C         -6.07190         9.54799        -0.42144
C         -4.92209        10.24371        -0.29144
C         -3.68571         9.65498         0.21355
C         -2.50292        10.25799        -0.08003
C         -1.16717         9.55705        -0.07214
C          0.02997        10.24273         0.63911
C          1.32388         9.48553         0.30492
C          2.51325        10.12701         0.22725
C          3.76805         9.45567        -0.22201
C          5.09381        10.01002         0.14184
C          6.23831         9.29121         0.11909
C        -10.83298        -0.48591        -1.43934
C         -9.60349        -1.30101        -1.11124
C         -8.82094        -0.74183         0.09087
C         -7.58164        -1.49134         0.41525
C         -6.33101        -0.69762         0.71668
C         -5.03796        -1.43388         0.76869
C         -3.78430        -0.75950         1.26407
C         -2.53207        -1.45385         0.75389
C         -1.23979        -0.75356         1.16899
C          0.01741        -1.50084         0.89516
C          1.11070        -0.80213         0.12713
C          2.38516        -1.58376        -0.07630
C          3.62110        -0.87337        -0.54414
C          4.95854        -1.56141        -0.37977
C          6.16234        -0.71271        -0.11648
C          7.45496        -1.50201        -0.02705
C          8.75480        -0.83540        -0.27509
C         10.10914        -1.56802        -0.11318
C         11.15387        -0.66486         0.51735
C         -9.78209        -2.79058        -0.92754
C         -8.69682        -3.57492        -0.59112
C         -7.36504        -2.85048        -0.33170
C         -6.38932        -3.68290         0.55724
C         -5.14047        -2.93767         0.92798
C         -3.86162        -3.68546         1.16183
C         -2.55782        -2.94370         1.11209
C         -1.31438        -3.71954         0.75798
C         -0.03646        -2.98108         0.61044
C          1.25725        -3.69336         0.87984
C          2.50468        -2.92758         0.59570
C          3.80114        -3.70844         0.48120
C          5.01689        -3.02160        -0.04744
C          6.34590        -3.72952         0.20174
C          7.30758        -2.75615         0.80978
C          9.33727        -4.04234         0.23822
C         10.01709        -2.94845         0.58552
C         -8.65404        -4.98679        -0.77757
C         -7.50553        -5.77566        -0.50539
C         -6.45298        -5.25611         0.47619
C         -5.04918        -5.81596         0.16325
C         -3.83100        -5.10139         0.63440
C         -2.60105        -5.90655         0.92023
C         -1.29067        -5.19405         1.05872
C          0.02524        -5.96312         1.00318
C          1.26799        -5.19013         0.67234
C          2.53161        -5.93012         0.35171
C          3.83879        -5.20480         0.53770
C          5.13869        -5.96138         0.40452
C          6.42490        -5.21406         0.23016
C          7.70397        -6.05523         0.50886
C          8.95411        -5.29344        -0.00944
C         -7.43012        -7.10704        -0.90328
C         -6.20462        -7.92245        -0.77292
C         -4.98255        -7.29681        -0.16708
C         -3.84483        -8.16644         0.34413
C         -2.59586        -7.40095         0.64558
C         -1.27817        -7.75623        -0.01342
C          0.01312        -7.44692         0.69210
C          1.26194        -8.20159         0.30368
C          2.54453        -7.43356         0.21432
C          3.52989        -8.04283        -0.77721
C          5.12952        -7.44919         0.54947
C          6.78292        -8.49701         0.29544
C          7.39322        -7.34572        -0.26094
C         -6.21070        -9.40402        -0.88064
C         -5.10437       -10.14274        -0.68887
C         -3.81812        -9.69685        -0.01058
C         -2.56179       -10.22009        -0.75364
C         -1.29924       -10.20932        -0.34349
C         -0.00859       -10.38547        -0.06423
C          1.16480        -9.51009        -0.53124
C          2.52898       -10.22311        -0.47340
C          3.69334        -9.53038        -0.61853
C          5.03241       -10.13741        -0.77301
C          6.28117        -9.67454        -0.50729
O         -3.73559        -0.23843         2.58979
O         -0.14898         3.12060        -1.34332
O         -4.23148        -5.06159        -0.77545
O          4.47443         5.06704         0.55744
O         -0.40090        -1.23264         2.25944
O         -3.15524        -3.32144         2.37468
O         -3.34691        -8.03460         1.71602
O          1.97072        -3.03143         1.95235
O          1.56628         5.64331        -1.80213
O         -3.15457         6.59324        -0.63310
O         -8.69570        -1.51647         1.33338
O          2.24690        -8.24629         1.37346
O         -0.61028         7.66177         1.57965
O         -2.30020         2.31630         2.61652
O          8.03398        -1.49282        -1.36679
O         -6.21606        -3.21669         1.89125
O         -5.08073        -7.40905        -1.61727
O          6.64521        -4.48678        -1.01101
O         -3.64365         4.71759         2.64160
O         -6.74991         2.21869        -0.95276
O         -1.26311        -7.76371        -1.23591
O         -5.89214         0.96946         2.61873
O          2.70049         0.74227        -2.07845
O          3.59906         8.96946        -1.61421
O         -6.82712        -5.74328         1.70320
O         -2.05797        -5.58194         2.22600
O          7.86079         1.81834        -2.12463
O          0.50066        -0.35085        -1.13333
O         -6.25576         3.43728         2.21821
O          5.94948         0.35987         0.83238
O          4.00026        -4.39298         1.74983
O          7.54187        -2.75947         2.00991
O         -6.18736         5.80083         2.09027
O          2.17412         7.37458         1.24588
O          4.93090         1.85958        -2.48349
O          5.23946        -6.78587         1.67273
O         -6.16090         8.23664         1.63684
O          2.67410         3.34145        -2.29254
O          1.70160        -5.39228        -0.72587
O          5.05985        -2.56667        -1.42676
O          6.35825         5.88552        -2.50614
O          2.78998        -1.65737        -1.45561
O          5.82662         7.69968        -1.75193
O         -0.77800        -3.39520        -0.57518
O         -1.14694         5.40736        -1.10749
O         -6.78213        -2.64257        -1.55194
O         -0.07519         1.27482         1.90172
O          3.83946        -7.44074        -1.80582
O         -3.38154         8.57489         2.33809
O         -5.46650        -0.78181        -0.45915
O        -10.19397         1.14153         1.03665
O          0.04084        -6.97050         2.05122
O          8.77066         1.05799         1.27540
O         -9.74221         5.81475        -0.45267
H         -9.75957         6.02835         0.50299
O          0.92417        -9.15626        -1.89924
H          1.67153        -8.61998        -2.24026
O          9.83633         5.60935         0.15509
H          9.58720         5.43561         1.08581
O          7.05395        -8.86435         1.57158
H          7.39776        -8.07897         2.06295
O         -3.85905       -10.42541         1.23312
H         -3.44564        -9.86397         1.93017
O         -0.48049         4.07434         2.13691
H         -0.71421         3.38901         2.80998
O         10.59879        -1.80192        -1.44720
H          9.84362        -2.13513        -1.98303
O         -0.75546         9.51385        -1.46984
H         -1.49360         9.16308        -2.01167
O          7.87452        -6.32218         1.90304
H          7.99825        -5.47505         2.38163
O         -8.76662        -1.06825        -2.27352
H         -7.94221        -1.64790        -2.22283
O          6.48577         3.69588        -3.03051
H          6.47844         2.77482        -3.37680
O         -0.15858        10.31844         2.04092
H         -0.35126         9.41468         2.38299
O         -2.59310        -1.32907        -0.67947
H         -1.94291        -1.95076        -1.09155
O         -8.21659         1.91996         2.31567
H         -7.43380         2.10039         2.90858
H         12.10123        -1.15244         0.79495
H         11.94322         1.24878         0.95021
H         10.69202         3.49201         0.33680
H          9.15299         5.27642        -1.75413
H          8.38917         7.48289         0.33928
H          7.17645         9.75216         0.46261
H          5.11958        11.04227         0.52275
H          2.55616        11.21692         0.37968
H          0.12349        11.28876         0.25264
H         -2.52108        11.22436        -0.61174
H         -4.85410        11.25961        -0.71137
H         -6.94400        10.00618        -0.91153
H         -8.03090         7.74595        -1.04967
H         -8.38711         5.24800        -1.88377
H        -10.62022         3.61610        -0.78093
H        -11.70976         1.43619        -1.63532
H        -11.61148        -0.96385        -2.05290
H        -10.77512        -3.24394        -1.07945
H         -9.47640        -5.45260        -1.34819
H         -8.29609        -7.56971        -1.40641
H         -7.12750        -9.88284        -1.25799
H         -5.16831       -11.22918        -0.85599
H         -2.77147       -10.79270        -1.67689
H          0.26096       -11.23631         0.58973
H          2.54084       -11.32326        -0.40550
H          5.00031       -11.13941        -1.23716
H          7.09885       -10.36535        -0.78212
H          7.19785        -7.16667        -1.33042
H          9.61733        -5.88464        -0.66940
H         10.64558        -3.04428         1.49344
