         410
 CSIRO Nanostructure Databank - Neutral Graphene Oxide Data Set
C         27.87969        27.40728        -0.38028
C         27.84390        28.81404        -0.65189
C         26.66635        29.54804        -0.66585
C         27.81792        31.74369        -0.78245
C         26.66969        30.96229        -0.70895
C         27.69161        33.17622        -0.42610
C         26.62002        33.77725         0.29249
C         27.77277        35.95636         0.41509
C         26.61566        35.14756         0.57297
C         27.83488        37.41856         0.52571
C         26.64059        38.17466         0.62486
C         27.86818        40.26048         0.29038
C         26.65812        39.54861         0.49718
C         27.88501        41.69386         0.14345
C         26.67694        42.43631         0.01245
C         27.92191        44.51624        -0.12563
C         26.69181        43.80314        -0.13538
C         27.94578        45.92908        -0.24874
C         30.34003        27.36391        -0.46840
C         29.05807        26.71162        -0.34266
C         30.36991        28.75815        -0.69439
C         29.10783        29.48460        -0.97800
C         30.46516        31.63699        -0.93943
C         29.10372        31.03946        -1.11292
C         30.61787        33.02094        -1.05130
C         28.72259        34.07646        -0.73396
C         30.26042        35.87373         0.18065
C         28.92018        35.31149        -0.10201
C         30.33262        37.38173         0.40438
C         29.05399        38.11854         0.33245
C         30.35871        40.23330         0.17001
C         29.09428        39.53545         0.24865
C         30.37081        41.65060         0.17167
C         29.13159        42.37820         0.12020
C         30.38243        44.51897         0.08927
C         29.14675        43.80214         0.01772
C         30.37702        45.94230        -0.03434
C         29.14155        46.61586        -0.21556
C         32.78569        24.52165        -0.05967
C         31.60171        25.21893        -0.15026
C         32.82716        27.30715        -0.48069
C         31.57635        26.62842        -0.35726
C         32.82096        28.72146        -0.60358
C         31.61436        29.44615        -0.66423
C         32.87699        31.60315        -0.49685
C         31.64688        30.89744        -0.68940
C         32.89093        33.01856        -0.32467
C         31.68194        33.73376        -0.48994
C         32.87151        35.87847         0.16335
C         31.55779        35.10301         0.04007
C         32.80869        37.34950         0.04182
C         31.62650        38.07000         0.15196
C         32.81935        40.24278         0.00786
C         31.60759        39.52050         0.07844
C         32.86483        41.65635         0.19354
C         31.61262        42.37588         0.24793
C         32.82855        44.51573         0.62373
C         31.59464        43.78799         0.28971
C         32.82908        46.01052         0.52170
C         31.61572        46.68834         0.02960
C         32.93443        48.71251        -0.42266
C         31.70238        48.02385        -0.33502
C         35.31243        23.04194         0.22971
C         35.29244        24.43377        -0.04892
C         34.05099        25.16625        -0.17096
C         35.33302        27.23696        -0.45503
C         34.07287        26.57080        -0.39581
C         35.38469        28.68849        -0.70506
C         34.08899        29.45631        -0.76668
C         35.33783        31.56096        -0.28181
C         34.12655        30.89851        -0.47394
C         35.36274        33.01023        -0.19923
C         34.12281        33.75145        -0.22282
C         35.33188        35.89493        -0.26005
C         34.11880        35.16088        -0.17561
C         35.35572        37.29887        -0.23377
C         34.06391        38.02097        -0.34909
C         35.36566        40.21778        -0.11002
C         34.07144        39.54146        -0.32423
C         35.36002        41.64543         0.05995
C         34.12382        42.33327         0.20025
C         35.40926        44.53780         0.29979
C         34.16229        43.76847         0.54152
C         35.41597        45.94373         0.25029
C         34.16828        46.73584         0.37586
C         35.42170        48.78208        -0.35245
C         34.15358        48.10049        -0.18062
C         35.46825        50.14797        -0.68877
C         37.75767        23.01551         0.28117
C         36.50374        22.37857         0.44823
C         37.77801        24.38573        -0.11913
C         36.54229        25.11079        -0.16865
C         37.79552        27.27331        -0.27594
C         36.54852        26.54221        -0.31238
C         37.81873        28.70573        -0.26611
C         36.61364        29.43275        -0.38760
C         37.82926        31.52863        -0.06596
C         36.60077        30.83946        -0.26374
C         37.80500        32.98578         0.31493
C         36.56669        33.68894        -0.15766
C         37.88597        35.88630        -0.32020
C         36.57726        35.13081        -0.41035
C         37.83231        37.33765        -0.07590
C         36.58269        38.03319        -0.12612
C         37.78855        40.20297         0.30735
C         36.54497        39.47367        -0.01666
C         37.82868        41.66408         0.10653
C         36.60894        42.36553         0.06731
C         37.84027        44.51864        -0.04429
C         36.62081        43.82002         0.08265
C         37.86442        45.93199         0.00408
C         36.63534        46.64974         0.06110
C         37.87835        48.79241        -0.12063
C         36.64418        48.08294        -0.12022
C         37.87304        50.19105        -0.36457
C         36.67329        50.83857        -0.69003
C         40.22638        20.94878         2.29317
C         39.00790        21.42728         1.82141
C         40.20916        22.57648         0.10727
C         38.96777        22.30049         0.70884
C         40.23117        24.53433        -0.61445
C         39.00959        25.13930        -0.31477
C         40.26788        27.27681        -0.28396
C         39.01873        26.57371        -0.24586
C         40.28432        28.69676        -0.21594
C         39.05692        29.41122        -0.17626
C         40.31335        31.54290         0.06888
C         39.05323        30.83607        -0.07109
C         40.30061        32.97673         0.20378
C         39.11038        33.71512         0.09938
C         40.31074        35.88328         0.03761
C         39.11827        35.13940         0.01048
C         40.29700        37.29604        -0.04961
C         39.07731        38.00125         0.03261
C         40.35342        40.19648         0.10178
C         39.09940        39.44835         0.31235
C         40.30650        41.62563         0.03572
C         39.09321        42.32086         0.00894
C         40.36917        44.50980        -0.01947
C         39.10388        43.77587        -0.40350
C         40.35558        45.93326         0.08873
C         39.11848        46.65444         0.03369
C         40.35721        48.76681         0.24904
C         39.12541        48.07052         0.07862
C         40.36020        50.24717         0.28015
C         39.10308        50.98920        -0.14344
C         40.49732        52.90769        -0.81109
C         39.28504        52.30359        -0.78119
C         42.72865        20.96986         2.32001
C         41.46201        21.40582         1.76956
C         42.70042        22.94850         0.14297
C         41.45493        22.31318         0.68788
C         42.71665        24.39832        -0.25826
C         41.51007        25.14597        -0.41424
C         42.74346        27.27578        -0.41392
C         41.50834        26.57054        -0.33449
C         42.75835        28.71466        -0.36997
C         41.52856        29.41118        -0.19408
C         42.83748        31.48466         0.18145
C         41.52291        30.82252        -0.00006
C         42.87134        32.96984         0.41022
C         41.56169        33.69459         0.47527
C         42.85918        35.88645         0.14047
C         41.57357        35.19081         0.34960
C         42.84946        37.28360         0.05312
C         41.58598        38.02661        -0.34414
C         42.79658        40.21151         0.10778
C         41.56004        39.49961        -0.00609
C         42.83164        41.60305         0.06995
C         41.58341        42.34212        -0.36379
C         42.80644        44.51532         0.11568
C         41.57720        43.81321        -0.00182
C         42.81913        45.92029         0.24416
C         41.58671        46.64045         0.22402
C         42.83870        48.76693         0.51329
C         41.58372        48.07164         0.32730
C         42.85172        50.26628         0.70636
C         41.64476        50.94403         0.12318
C         42.96570        52.92968        -0.40712
C         41.69394        52.25383        -0.31584
C         43.90525        21.40302         1.81202
C         45.24189        23.18031         0.57730
C         43.99388        22.38414         0.70548
C         45.22711        24.46200        -0.02932
C         43.94685        25.11596        -0.31377
C         45.16229        27.21345        -0.99164
C         43.93757        26.52510        -0.52719
C         45.16354        28.72027        -1.07897
C         43.98518        29.43929        -0.54864
C         45.28849        31.57079        -0.39962
C         44.05939        30.81897        -0.32101
C         45.29741        33.00609        -0.16352
C         44.10394        33.71876         0.09858
C         45.31283        35.87148         0.03030
C         44.08345        35.15158         0.11323
C         45.30117        37.29491         0.15205
C         44.06663        37.98663         0.15714
C         45.32191        40.18948         0.52734
C         44.02181        39.44295         0.40902
C         45.29743        41.65919         0.34781
C         44.07211        42.31297         0.18857
C         45.38790        44.52917         0.43178
C         44.07532        43.77393         0.02563
C         45.23714        45.94330         0.76461
C         44.05607        46.62660         0.52372
C         45.29207        48.78928         0.83549
C         44.02723        48.07431         0.65835
C         45.34719        50.20709         0.55461
C         44.15797        50.91835         0.31405
C         44.13868        52.27637        -0.11907
C         47.65334        23.30797         0.82911
C         46.45737        22.62434         0.99781
C         47.67999        24.57140         0.21179
C         46.45931        25.14697        -0.21138
C         47.76969        27.22007        -1.00165
C         46.47395        26.45759        -0.89951
C         47.76852        28.73636        -1.18606
C         46.47253        29.49737        -1.16090
C         47.74776        31.61538        -0.71943
C         46.50515        30.91398        -0.71491
C         47.75611        33.03581        -0.52312
C         46.53225        33.73223        -0.27681
C         47.77085        35.88068        -0.16676
C         46.54225        35.15600        -0.12617
C         47.77646        37.30553         0.00565
C         46.55392        38.01903         0.18784
C         47.79591        40.12742         0.37173
C         46.57612        39.42919         0.33840
C         47.79333        41.61437         0.44370
C         46.52363        42.37265         0.58458
C         47.73241        44.37622         1.59542
C         46.55567        43.73423         0.84596
C         47.66155        45.90259         1.51525
C         46.33568        46.62806         1.52234
C         47.71139        48.78583         1.28773
C         46.45024        48.10146         1.18685
C         47.76674        50.16015         0.88978
C         46.63374        50.83915         0.53312
C         50.17488        24.63573         0.31950
C         48.95813        25.27285         0.02486
C         50.21867        27.31579        -0.55362
C         48.99590        26.59821        -0.46821
C         50.21287        28.73899        -0.85622
C         49.03053        29.46906        -0.94561
C         50.19696        31.65445        -1.03567
C         49.00029        30.92316        -0.93010
C         50.20207        33.08316        -0.90877
C         48.98442        33.76951        -0.60628
C         50.23131        35.91048        -0.43009
C         48.99839        35.18605        -0.39252
C         50.26305        37.33118        -0.19935
C         49.01082        38.02237         0.01011
C         50.29419        40.10718         0.45036
C         49.00476        39.41863         0.24025
C         50.33265        41.57027         0.76176
C         49.06627        42.36341         0.64107
C         50.34388        44.33810         1.22658
C         49.08472        43.75490         1.16942
C         50.57543        45.66126         1.74218
C         48.68120        46.68087         2.00743
C         50.19718        48.63285         1.75429
C         48.86186        48.07969         1.72777
C         51.38606        25.30141         0.15742
C         52.75534        27.31694        -0.35586
C         51.43170        26.64060        -0.24295
C         52.80630        28.75379        -0.83478
C         51.49239        29.42443        -1.15081
C         52.76209        31.67421        -1.30410
C         51.45681        30.92384        -1.31492
C         52.70130        33.16431        -1.32618
C         51.40004        33.84535        -1.06713
C         52.65162        36.01384        -1.05638
C         51.42327        35.21808        -0.78920
C         52.79739        37.32343        -0.31177
C         51.47851        38.05698        -0.25381
C         52.68304        40.22077        -0.28160
C         51.52058        39.45555        -0.04592
C         52.69197        41.62838        -0.01878
C         51.57998        42.30396         0.48534
C         52.67586        44.51984         0.43090
C         51.55664        43.71600         0.69612
C         52.64362        45.95735         0.53256
C         51.53356        46.54586         1.27931
C         51.38529        47.96204         1.55811
C         54.94274        27.62903         0.73099
C         53.87194        26.84236         0.48097
C         54.99678        29.01793         0.31956
C         53.96584        29.58328        -0.41955
C         55.05976        31.88104        -0.03332
C         54.01390        31.01605        -0.76545
C         54.72490        33.35389         0.21722
C         53.90561        33.91068        -0.91225
C         55.36572        36.00915        -1.12485
C         54.02613        35.27473        -1.27332
C         55.19412        37.52309        -1.06409
C         53.98193        38.15797        -0.74719
C         55.03490        40.33984        -1.14748
C         53.90791        39.57305        -0.74261
C         54.84790        41.83681        -1.33980
C         53.93171        42.38690        -0.26483
C         54.93624        44.70892        -0.69783
C         53.91807        43.88339        -0.03118
C         54.79242        46.08465        -0.66878
C         53.69012        46.69984        -0.01990
C         56.00263        29.84275         0.95269
C         55.96059        31.19685         0.90072
C         55.89740        34.22911         0.58717
C         56.11493        35.44899         0.07671
C         56.30421        38.29344        -1.43828
C         56.21996        39.68400        -1.49693
C         56.08816        42.68467        -1.50009
C         56.07222        44.02313        -1.27873
O         56.07489        35.67586        -2.27472
O         33.46988        46.64640         1.66412
O         45.71797        26.50680        -2.14357
O         33.49798        44.03602         1.82653
O         47.93277        27.82663        -2.31396
O         52.89659        32.40191        -2.56485
O         41.49386        34.54246         1.67830
O         29.05158        30.16912        -2.27652
O         29.63624        33.73254        -1.72696
O         40.20854        23.23473        -1.13249
O         44.58172        39.77341         1.73789
O         53.13519        27.65132        -1.73599
O         37.33337        35.49558        -1.63749
O         43.02784        32.03932         1.54297
O         51.41821        30.03827        -2.48005
O         45.63753        29.27591        -2.34087
O         45.00272        44.26623        -0.96934
O         50.41237        40.61200         1.86153
O         34.80281        29.08664        -2.00583
O         54.54554        42.92082         0.92868
O         49.70409        46.06769         2.75144
O         38.41762        39.77634         1.57603
O         43.49607        21.98986        -0.62258
O         32.26999        35.22113         1.31706
O         39.49696        50.90521         1.27460
O         48.52264        42.21455        -0.72344
O         30.26308        36.45930         1.53020
O         33.96932        38.80027        -1.59564
O         55.23027        31.48399        -1.41453
O         53.17683        35.77788        -2.34952
O         42.73399        50.46527         2.16685
H         42.47992        51.40034         2.31901
O         53.81845        33.33723         1.37532
H         53.69767        34.26413         1.67780
O         54.08415        41.98359        -2.58145
H         54.57561        41.52726        -3.29657
O         41.58925        42.30120        -1.83222
H         40.76512        42.76546        -2.12885
O         39.13207        43.72862        -1.89237
H         39.11486        44.65661        -2.21237
O         37.65783        32.98770         1.79615
H         38.50791        32.67566         2.17650
O         41.67292        38.01189        -1.82388
H         40.95596        38.58086        -2.17745
O         47.53174        44.02802         3.00770
H         48.28047        44.42942         3.50436
O         45.91840        46.55836         2.94196
H         46.09994        45.63992         3.25020
O         53.06824        36.87278         1.07024
H         53.01488        37.66273         1.65131
H         26.92680        26.88146        -0.22103
H         25.70767        29.02968        -0.51962
H         25.70225        31.46648        -0.57126
H         25.74223        33.18012         0.57788
H         25.70918        35.58432         1.01546
H         25.68279        37.66005         0.78182
H         25.70787        40.09303         0.57217
H         25.71154        41.91389         0.00581
H         25.75116        44.36029        -0.25015
H         26.99803        46.47384        -0.36414
H         29.02102        25.62942        -0.16170
H         29.12470        47.71030        -0.29857
H         32.73772        23.43664         0.10186
H         30.66074        24.66079        -0.05832
H         32.90090        49.75124        -0.77715
H         30.80280        48.56480        -0.65721
H         34.37348        22.48149         0.32527
H         34.54487        50.70132        -0.90175
H         36.48308        21.31582         0.72796
H         36.66795        51.91708        -0.89652
H         40.24084        20.24659         3.13882
H         38.07623        21.13818         2.32788
H         40.60770        53.89788        -1.27710
H         38.42604        52.78526        -1.26964
H         42.71749        20.27324         3.17095
H         42.98515        53.96978        -0.76171
H         44.83740        21.08464         2.30000
H         45.08787        52.80832        -0.27405
H         48.57901        22.82955         1.17107
H         46.48344        21.62319         1.44680
H         48.73070        50.68667         0.90230
H         46.71171        51.90366         0.27452
H         50.19809        23.58874         0.64503
H         50.27114        49.73047         1.81231
H         52.31567        24.75164         0.35262
H         52.29112        48.58332         1.47490
H         55.76754        27.24949         1.35182
H         53.82559        25.83858         0.92496
H         55.55737        46.72267        -1.13479
H         53.66063        47.79715         0.03127
H         56.72266        29.34300         1.61738
H         56.61599        31.79585         1.54841
H         56.54727        33.85835         1.39548
H         56.98407        36.02778         0.42684
H         57.22739        37.77473        -1.73066
H         57.09783        40.25984        -1.82133
H         56.98431        42.23529        -1.95333
H         56.95512        44.62701        -1.54055
