         344
 CSIRO Nanostructure Databank - Neutral Graphene Oxide Data Set
C          1.42577         2.25642         1.77443
C          1.33093         3.56890         1.43561
C          2.56105         1.47496         1.37566
C          2.35056         4.17788         0.50149
C          1.20558         6.40981         0.53660
C          1.20307         7.79293         0.46780
C          2.40891         5.68435         0.53710
C          2.41568         8.52387         0.37175
C          1.20072        10.71971         0.29929
C          1.19440        12.08632         0.26768
C          2.41804         9.95321         0.21559
C          2.40867        12.84569         0.10214
C          1.29068        15.00808         0.63711
C          1.32087        16.35305         0.78702
C          2.46338        14.20783         0.32120
C          2.60974        17.13395         0.76302
C          2.49123        18.56310         0.29459
C          3.68720         2.09049         0.84994
C          3.69058         3.49915         0.63023
C          4.90540         1.26759         0.51449
C          4.90003         4.22522         0.53024
C          3.64076         6.37302         0.46700
C          3.65402         7.81231         0.38578
C          4.87399         5.64100         0.47193
C          4.88106         8.53450         0.22791
C          3.63319        10.62416        -0.05726
C          3.57519        12.07571        -0.49233
C          4.84366         9.91730        -0.09234
C          4.90500        12.79889        -0.43455
C          3.79672        14.92408         0.34948
C          3.63786        16.38770        -0.11706
C          4.91153        14.20140        -0.34886
C          4.95293        17.13158        -0.17551
C          3.62069        19.24740         0.03452
C          4.92684        18.58690        -0.03430
C          6.18438         2.06963         0.46146
C          6.17123         3.49975         0.50268
C          7.38229         1.38127         0.36942
C          7.39193         4.19149         0.45625
C          6.12321         6.40109         0.64123
C          6.14837         7.85027         0.35315
C          7.42131         5.64662         0.71810
C          7.36528         8.52807         0.24932
C          6.12393        10.56296        -0.59741
C          6.08950        12.07434        -0.60303
C          7.31618        10.04491         0.22184
C          7.37514        12.78023        -0.76442
C          6.04169        15.01614        -0.93264
C          6.10253        16.45136        -0.45190
C          7.39104        14.29056        -0.89505
C          7.38597        17.16605        -0.61872
C          6.08744        19.31190        -0.05706
C          7.37820        18.68367        -0.37075
C          8.61761         2.06709         0.22970
C          8.61776         3.49264         0.23812
C          9.84643         1.37755         0.03906
C          9.83688         4.19699         0.02120
C          8.74971         6.38700         0.62989
C          8.62419         7.85265         0.23112
C          9.74548         5.67307        -0.28223
C          9.81900         8.52712        -0.05993
C          8.62411        10.71258        -0.12939
C          8.62598        12.09234        -0.37771
C          9.84823         9.97115        -0.12769
C          9.82565        12.85164        -0.29463
C          8.62299        15.00898        -0.48587
C          8.63804        16.42170        -0.38893
C          9.80824        14.25613        -0.28262
C          9.84985        17.15012        -0.19556
C          8.64118        19.31058        -0.01474
C          9.84646        18.60253        -0.09131
C         11.03529         2.06884        -0.10510
C         11.04075         3.49984        -0.10707
C         12.31269         1.32628        -0.42192
C         12.30215         4.22520        -0.26415
C         11.07328         6.39145        -0.26468
C         11.06659         7.80143        -0.24237
C         12.28307         5.66566        -0.34912
C         12.28971         8.51188        -0.46886
C         11.07378        10.65195        -0.23161
C         11.08236        12.11376         0.11816
C         12.30029         9.96681        -0.46439
C         12.34083        12.82259        -0.28619
C         11.06049        14.96821         0.17586
C         11.07918        16.46023        -0.06708
C         12.30373        14.31836        -0.45251
C         12.30661        17.15495        -0.05878
C         11.08753        19.28679         0.00727
C         12.31393        18.60140        -0.06777
C         13.54542         2.07118         0.10432
C         13.51523         3.54365        -0.25874
C         14.81742         1.39097        -0.32703
C         14.75399         4.24949        -0.43288
C         13.51511         6.37552        -0.47304
C         13.49021         7.78739        -0.59801
C         14.75890         5.66732        -0.53823
C         14.73136         8.47393        -0.99793
C         13.49942        10.69076        -0.65380
C         13.51948        12.13519        -0.53537
C         14.70730         9.98193        -1.10161
C         14.75871        12.88105        -0.70814
C         13.59336        14.96937         0.05037
C         13.56908        16.46567        -0.14500
C         14.81144        14.26270        -0.49774
C         14.74937        17.15903        -0.32301
C         13.55020        19.29370        -0.11690
C         14.77007        18.60567        -0.27298
C         15.95870         2.07638        -0.58528
C         15.97955         3.53016        -0.53889
C         17.20679         1.34737        -1.03719
C         17.20617         4.23463        -0.63015
C         16.00629         6.37391        -0.66679
C         16.02540         7.79241        -0.83208
C         17.22059         5.64529        -0.65912
C         17.25015         8.53121        -0.76596
C         16.02982        10.69093        -1.16240
C         16.02167        12.19634        -1.03022
C         17.27005         9.96596        -0.83179
C         17.28607        12.87132        -0.70011
C         16.02608        14.97731        -0.59257
C         15.99276        16.46090        -0.82504
C         17.26829        14.29036        -0.60443
C         17.27220        17.15902        -0.45841
C         16.01512        19.28001        -0.32880
C         17.25164        18.57555        -0.35706
C         18.47694         2.09403        -0.70160
C         18.45943         3.50136        -0.60051
C         19.67887         1.39167        -0.58220
C         19.67379         4.21002        -0.33108
C         18.52375         6.36241        -0.91423
C         18.48288         7.83645        -0.59779
C         19.70519         5.63810        -0.33120
C         19.68123         8.53823        -0.36257
C         18.47115        10.68434        -0.63156
C         18.48586        12.13942        -0.60383
C         19.68724         9.97554        -0.36665
C         19.71264        12.84940        -0.39598
C         18.50228        15.00531        -0.48984
C         18.48994        16.44793        -0.42221
C         19.71475        14.28544        -0.38400
C         19.72459        17.15707        -0.33187
C         18.49763        19.26673        -0.30473
C         19.70219        18.58310        -0.32576
C         20.88484         2.06407        -0.27167
C         20.85576         3.46327        -0.10052
C         22.14686         1.34601        -0.24026
C         22.06769         4.15180         0.44784
C         20.89975         6.35523        -0.01431
C         20.90108         7.82113        -0.05989
C         22.07323         5.64576         0.27642
C         22.06401         8.54325         0.21413
C         20.90456        10.69249        -0.15815
C         20.92917        12.12852        -0.19261
C         22.11052         9.97468         0.10473
C         22.15725        12.82854         0.00242
C         20.95011        15.00362        -0.22847
C         20.96104        16.42902        -0.23872
C         22.16497        14.27948        -0.02859
C         22.19673        17.13900        -0.12132
C         20.97959        19.37827        -0.43001
C         22.23648        18.57502        -0.19657
C         23.34754         2.00141        -0.13646
C         23.35455         3.47884         0.01944
C         24.62596         1.38972        -0.42249
C         24.63777         4.15612         0.33505
C         23.29951         6.33119         0.69697
C         23.28491         7.85127         0.67090
C         24.61308         5.61836         0.65962
C         24.56231         8.57429         0.58175
C         23.34088        10.67704         0.27118
C         23.36480        12.09435         0.19743
C         24.58775         9.94568         0.42638
C         24.62750        12.78071         0.36480
C         23.36068        14.99668         0.18154
C         23.40625        16.41694         0.08769
C         24.58723        14.25540         0.51451
C         24.65783        17.13459         0.14566
C         23.43238        19.25276        -0.11692
C         24.67907        18.56111         0.02376
C         25.83740         2.00109        -0.19565
C         25.84454         3.28259         0.67679
C         27.03462         1.39379        -0.76995
C         27.10808         4.12425         0.63902
C         25.77806         6.31918         0.64870
C         25.81958         7.79592         0.30429
C         27.06583         5.59045         0.77135
C         27.08644         8.50649         0.81698
C         25.86598        10.66160         0.42662
C         25.83259        12.10004         0.45881
C         27.08582         9.98472         0.49549
C         27.11942        12.83325         0.81168
C         25.88219        15.00121         0.51975
C         25.89053        16.45224         0.26169
C         27.12420        14.22222         0.15323
C         27.12351        17.12677         0.26963
C         25.90535        19.24585         0.03108
C         27.13884        18.55737         0.14871
C         28.29439         1.56021        -0.26139
C         28.33861         3.54033         0.72194
C         29.60033         1.30221        -0.83600
C         29.59398         4.19452         0.41559
C         28.37364         6.33603         0.75150
C         28.33933         7.77655         0.27215
C         29.62901         5.60330         0.47042
C         29.63285         8.51179         0.51957
C         28.36012        10.66470         0.52088
C         28.39218        12.07271         0.50588
C         29.60778         9.93431         0.53662
C         29.61864        12.77202         0.46840
C         28.38053        15.00291         0.40492
C         28.37047        16.38800         0.40098
C         29.67803        14.26810         0.20412
C         29.62314        17.12199         0.46296
C         28.37868        19.23844         0.16262
C         29.60424        18.54639         0.32343
C         30.68156         2.10877        -0.60217
C         30.72470         3.46577        -0.06325
C         31.91635         4.20318        -0.24618
C         30.83025         6.32645         0.28601
C         30.83729         7.79138         0.45145
C         31.98424         5.57918        -0.03036
C         32.05529         8.51883         0.53703
C         30.84784        10.64756         0.55496
C         30.84270        12.08094         0.49366
C         32.05678         9.89622         0.59507
C         32.08069        12.85509         0.46473
C         30.82832        14.94591         0.95073
C         30.85457        16.44361         0.65998
C         32.10487        14.19220         0.64883
C         32.03613        17.18436         0.72506
C         30.83625        19.25922         0.36636
C         32.02581        18.58414         0.56211
O         23.11348         7.11279         1.94345
O         27.78049         6.01529         2.04349
O          7.42259        18.09400        -1.74084
O         28.38202         2.16831         1.00981
O          7.55687        13.45799        -2.09066
O         16.09794        11.53796        -2.35871
O         25.22538        14.69383         1.79900
O         14.53243         9.15179        -2.30484
O         24.14511         4.08493        -1.05972
O          6.74303         6.03090         1.96537
O          5.04566         0.15627         1.40891
H          5.24266         0.50691         2.30149
O          7.04008        10.46240         1.59741
H          7.78401        10.15758         2.15918
O         17.24131         0.01353        -0.52631
H         17.28736         0.05864         0.45033
O         11.06994        12.11559         1.60150
H         11.01900        13.07297         1.87438
O          3.07180        17.24605         2.13399
H          3.39907        16.35822         2.41524
O         30.55368        14.80770         2.36895
H         31.28746        15.22370         2.86636
O         29.96858        14.39320        -1.22403
H         29.20641        13.99368        -1.70120
O         20.94457        20.51995         0.43985
H         20.92131        20.19768         1.36398
O          6.31768        10.12553        -1.96731
H          5.61936        10.54238        -2.51571
O         27.15939        12.97996         2.24892
H         26.37152        13.51571         2.51654
O         11.07380        14.80853         1.63128
H         11.98975        15.02451         1.94273
O         15.89298        16.59419        -2.30050
H         15.92011        17.55442        -2.50211
O         27.07136        13.98666        -1.29567
H         27.02298        14.86195        -1.73692
O         25.85897         7.81535        -1.16510
H         25.13568         7.24207        -1.49720
O         12.41105         1.16714        -1.84725
H         12.42147         2.05823        -2.25363
O         22.03953         3.93777         1.90788
H         21.32881         4.49912         2.28367
O          9.32529         6.37623         1.95817
H          8.57436         6.47174         2.58826
O         28.29107         7.65586        -1.17576
H         28.10887         8.54218        -1.55270
O         27.09217         8.50579         2.25464
H         27.22014         7.57579         2.57063
O          3.10267        16.34669        -1.45695
H          3.81031        15.98977        -2.04555
O         18.72522         6.30511        -2.38769
H         17.97472         6.78654        -2.79846
O         13.68343        14.75794         1.50386
H         14.50530        15.19235         1.81683
O          5.64683        15.14688        -2.34406
H          6.11114        14.41536        -2.82287
O          1.86204         3.84893        -0.86299
H          1.78032         2.87162        -0.90416
O         12.19544        14.59356        -1.87128
H         12.97178        14.19957        -2.32365
O         25.64994         2.84367         2.04478
H         26.46496         2.36655         2.31361
O          9.20063         5.78327        -1.63166
H          9.85492         5.40904        -2.25781
O          3.29185        12.01633        -1.93897
H          2.37858        11.67105        -2.03861
O         13.46619         1.98857         1.56048
H         14.20491         2.51555         1.93037
O          4.23518        14.92495         1.76299
H          4.23974        13.99349         2.07144
H          0.63888         1.77820         2.37587
H          0.44856         4.15523         1.72921
H          2.58515         0.39727         1.58862
H          0.24704         5.87371         0.56388
H          0.23782         8.31481         0.44875
H          0.24818        10.20114         0.46881
H          0.24484        12.60990         0.44302
H          0.31812        14.49867         0.70398
H          0.38689        16.89226         1.01019
H          1.51122        19.06362         0.29966
H          4.73645         0.82040        -0.50767
H          3.58681        20.32271        -0.19881
H          7.37241         0.28156         0.37714
H          6.06519        20.39756         0.12336
H          9.84345         0.27827        -0.00239
H          8.65076        20.37196         0.27648
H         12.28384         0.30078         0.01971
H         11.08527        20.38544         0.06433
H         14.82717         0.29120        -0.37493
H         13.55120        20.39293        -0.07370
H         17.15452         1.25285        -2.15925
H         16.03073        20.37792        -0.26779
H         19.67767         0.29957        -0.71146
H         18.50401        20.36605        -0.27271
H         22.12741         0.25933        -0.41286
H         21.03005        19.79361        -1.47690
H         24.61485         0.39994        -0.90676
H         23.43449        20.35066        -0.18297
H         26.90480         0.82206        -1.70197
H         25.91020        20.34248        -0.05640
H         29.73267         0.42214        -1.48472
H         28.39138        20.33428         0.06608
H         31.63489         1.78457        -1.05268
H         32.81706         3.67488        -0.59303
H         32.94822         6.08674        -0.17332
H         33.01411         7.98231         0.54758
H         33.02146        10.41778         0.65208
H         33.03072        12.32520         0.30359
H         33.07211        14.71671         0.65544
H         32.99887        16.68334         0.89865
H         30.82741        20.35266         0.25212
H         32.97434        19.13773         0.60231
