         576
 CSIRO Nanostructure Databank - Neutral Graphene Oxide Data Set
C          6.15518        18.83257         1.57075
C          6.02184        20.30337         1.91956
C          5.20506        21.00693         0.84645
C          5.72930        23.36114         1.44382
C          5.02178        22.33648         0.69267
C          6.04762        24.60630         1.00857
C          8.39594        14.87283        -0.20336
C          8.41611        16.25252         0.07792
C          7.26828        16.88734         0.58368
C          8.50253        19.08803         0.75552
C          7.26300        18.24277         1.01767
C          8.64941        20.15479         1.84373
C          7.41494        20.89758         2.21257
C          8.55712        23.13787         1.88116
C          7.52097        22.37286         2.33964
C          8.52313        24.68489         1.91157
C          7.15566        25.38454         1.58099
C          8.02383        27.70534         1.71593
C          6.93934        26.71708         1.82654
C          8.48409        28.81055         2.35224
C         10.81517        10.69164        -0.71131
C         10.80751        12.09459        -0.97444
C          9.60927        12.81706        -0.65472
C         10.65794        15.02807        -1.27515
C          9.54645        14.19712        -0.66702
C         10.85529        16.32346        -0.50146
C          9.69294        16.96668         0.00474
C         11.01634        18.89058         0.65925
C          9.76564        18.27256         0.53425
C         11.20219        20.12997         1.51297
C          9.93779        20.92577         1.83985
C         11.06956        23.14843         1.26537
C          9.87921        22.43838         1.76352
C         10.99269        24.55655         1.10080
C          9.74287        25.26439         1.17440
C         10.99687        27.38586         0.95595
C          9.80905        26.62897         0.86374
C         10.96364        28.77496         1.49898
C          9.73020        29.52318         1.95368
C         11.11392        31.65222         2.26071
C          9.81535        30.86908         2.17128
C         11.06421        33.15541         2.03930
C         13.28954         6.85680         1.00489
C         13.26829         8.06182         0.19804
C         12.03834         8.65864        -0.15286
C         13.19670        10.52854        -1.37396
C         11.98553         9.94325        -0.74567
C         13.18676        12.01633        -1.73605
C         11.96552        12.77414        -1.38594
C         13.30809        14.96337        -1.47947
C         11.96167        14.24556        -1.51754
C         13.35227        16.45107        -1.13996
C         12.09778        16.96573        -0.43498
C         13.47347        18.87842         0.33179
C         12.17878        18.23707         0.18748
C         13.50485        20.30810         0.62415
C         12.33041        20.98918         1.00515
C         13.44298        23.10327         0.55210
C         12.27740        22.40983         0.98958
C         13.33866        24.52717         0.26048
C         12.16132        25.27940         0.68606
C         13.43780        27.43047         0.48901
C         12.20778        26.68813         0.73329
C         13.21035        28.93359         0.26842
C         12.24140        29.54719         1.29597
C         13.40204        31.71241         1.31207
C         12.24843        31.02292         1.48270
C         13.49302        33.15545         1.63231
C         12.21458        33.88170         1.84402
C         13.43701        36.03986         1.46969
C         12.28660        35.32682         1.79854
C         13.47009        37.48777         1.51047
C         15.72900         6.89494         1.08940
C         14.45967         6.28239         1.39995
C         15.70243         8.23982         0.48504
C         14.47097         8.73632        -0.09659
C         15.75159        10.51288        -1.45678
C         14.47609         9.68506        -1.27705
C         15.75005        11.97384        -1.85214
C         14.47942        12.79970        -2.07888
C         15.77309        14.74776        -1.09896
C         14.55917        14.16176        -1.41137
C         15.80254        16.10673        -0.57616
C         14.64230        16.85411        -0.43360
C         15.92181        18.84265         0.61955
C         14.65293        18.17964         0.11439
C         15.98245        20.28371         0.09879
C         14.69860        21.02559         0.39491
C         15.92499        23.17246         0.18236
C         14.67333        22.42873         0.34447
C         15.89528        24.56880         0.15663
C         14.64741        25.31185         0.02449
C         15.89056        27.48358        -0.17084
C         14.60698        26.77976         0.21676
C         15.85687        28.96472         0.13398
C         14.57438        29.69318         0.26896
C         15.87949        31.76429         0.65029
C         14.70543        30.96469         1.18352
C         15.69802        33.20041         0.26674
C         14.70298        33.91212         1.15767
C         15.76496        36.07718         0.58090
C         14.65088        35.38228         1.02784
C         15.79367        37.53023         0.68811
C         14.59054        38.18439         1.17511
C         18.17622         6.73853         0.75025
C         16.93114         6.25910         1.30383
C         18.21011         7.93067        -0.01708
C         17.06634         8.79265        -0.06838
C         18.22288        10.48186        -1.42161
C         17.04415         9.93812        -1.00148
C         18.27101        11.89903        -1.87219
C         17.02969        12.69713        -1.64303
C         18.32594        14.74149        -1.18005
C         17.04763        14.02018        -1.28004
C         18.34162        16.06817        -0.80365
C         17.12673        16.69421        -0.23011
C         18.47862        18.88045         0.14445
C         17.20856        18.09528         0.29656
C         18.49203        20.30585         0.30140
C         17.20835        21.03792         0.65850
C         18.40035        23.17927         0.07163
C         17.18233        22.48604         0.22433
C         18.40635        24.63297         0.12028
C         17.13590        25.30694         0.43522
C         18.40470        27.49778         0.26673
C         17.11484        26.80270         0.42326
C         18.39573        28.92757         0.58066
C         17.08752        29.64567         0.66893
C         18.28387        31.82262         0.13355
C         17.07179        31.12433         0.50814
C         18.18318        33.24353        -0.10710
C         17.00282        33.94561         0.09815
C         18.10246        36.11840        -0.26519
C         16.97347        35.39124         0.09681
C         18.11795        37.63091        -0.29728
C         16.93348        38.24169         0.40248
C         20.60546         6.45090         0.40235
C         19.34413         5.96351         0.86823
C         20.66881         7.67101        -0.34126
C         19.37706         8.20293        -0.93482
C         20.79780        10.37988        -1.42593
C         19.46999         9.67355        -1.37715
C         20.84971        11.85987        -1.47451
C         19.60242        12.61709        -1.79545
C         20.80876        14.71218        -1.28795
C         19.58846        14.06580        -1.46528
C         20.86606        16.10164        -0.95958
C         19.58227        16.90270        -1.01295
C         20.93184        18.84783        -0.13376
C         19.63097        18.19587        -0.22953
C         20.96768        20.38887         0.00820
C         19.66103        21.06462         0.07728
C         20.92433        23.27248        -0.06788
C         19.63163        22.47898        -0.01077
C         20.69562        24.62165        -0.78705
C         19.53406        25.35641        -0.17545
C         20.80515        27.50313        -0.21224
C         19.57826        26.79906        -0.02069
C         20.88903        28.94638         0.03815
C         19.64572        29.73036         0.43829
C         20.70140        31.88071        -0.31796
C         19.51274        31.16339         0.06541
C         20.65144        33.22066        -0.62898
C         19.36380        33.93416        -0.64397
C         20.59164        36.26491        -1.03721
C         19.29793        35.45764        -0.80902
C         20.62948        37.58360        -0.28069
C         19.47075        38.18318         0.10805
C         23.05280         6.29955         0.41779
C         21.78727         5.77667         0.76779
C         23.10175         7.54457        -0.28121
C         21.92638         8.26438        -0.61825
C         23.22754        10.35536        -0.98266
C         22.02604         9.65783        -1.02893
C         23.29430        11.79822        -1.11167
C         22.04838        12.51452        -1.34109
C         23.35221        14.67253        -1.16651
C         22.09662        13.99254        -1.66326
C         23.34937        16.02409        -0.92415
C         22.10109        16.75484        -0.84351
C         23.32306        18.90395        -0.78448
C         22.14379        18.17361        -0.61095
C         23.25393        20.34280        -0.94704
C         22.14458        21.08001        -0.55512
C         23.15856        23.23748        -1.20200
C         22.10251        22.53280        -0.69511
C         23.11340        24.73035        -1.48632
C         21.95120        25.43005        -0.85032
C         23.18157        27.56774        -0.95914
C         21.97239        26.81696        -0.68222
C         23.18151        29.00362        -0.91693
C         22.04597        29.68641        -0.46973
C         23.21417        31.88527        -0.78162
C         22.00193        31.15610        -0.33961
C         23.15283        33.30088        -1.26185
C         21.84181        33.99976        -1.07344
C         23.08520        36.22056        -1.01501
C         21.84278        35.44289        -0.59549
C         23.12302        37.60901        -0.47053
C         21.93716        38.18970        -0.06936
C         25.53755         6.19563         0.51602
C         24.25596         5.63940         0.77819
C         25.62315         7.44059        -0.14718
C         24.40869         8.08461        -0.61938
C         25.75696        10.26579        -0.57712
C         24.48528         9.58997        -0.94620
C         25.77143        11.77461        -0.67951
C         24.51950        12.48394        -1.04948
C         25.82929        14.59025        -1.05597
C         24.58740        13.91798        -1.09783
C         25.88852        16.00729        -0.99257
C         24.62876        16.72856        -0.52203
C         25.76307        18.87817        -1.03561
C         24.59326        18.19892        -0.86796
C         25.74101        20.32361        -1.38518
C         24.43407        21.04299        -1.50443
C         25.66883        23.27895        -1.23422
C         24.41141        22.56416        -1.72031
C         25.64191        24.71212        -1.14501
C         24.42090        25.43511        -1.20951
C         25.65409        27.56261        -1.16708
C         24.40997        26.84882        -1.13159
C         25.67485        29.01272        -1.59122
C         24.41536        29.74935        -1.17658
C         25.67340        31.87277        -0.75379
C         24.42732        31.10988        -1.09874
C         25.60409        33.37297        -0.98558
C         24.44354        34.04668        -1.21330
C         25.66976        36.35623        -1.44288
C         24.37583        35.52932        -1.37243
C         25.61753        37.64379        -0.61639
C         24.41325        38.23032        -0.27813
C         27.99471         6.09034         0.78754
C         26.72655         5.54489         0.98411
C         28.16138         7.26370        -0.09839
C         26.91644         8.03720        -0.52654
C         28.22228        10.21397        -0.59398
C         27.02506         9.51640        -0.66183
C         28.24357        11.67910        -0.65204
C         27.08859        12.41056        -0.82570
C         28.38396        14.57842        -1.13521
C         27.09257        13.82303        -1.38157
C         28.37211        16.03705        -1.31856
C         27.09516        16.69871        -1.20832
C         28.28660        18.97264        -1.60851
C         27.03314        18.17324        -1.35789
C         28.26169        20.42805        -1.25991
C         26.94163        21.09483        -0.90156
C         28.06548        23.31585        -0.74290
C         26.87898        22.60343        -1.05386
C         28.07830        24.73132        -0.68384
C         26.86030        25.43395        -0.93752
C         28.11535        27.58043        -1.25550
C         26.83993        26.86596        -1.01961
C         28.15390        29.06475        -1.18199
C         26.96760        29.74561        -1.25706
C         28.10893        31.90603        -0.68814
C         26.93596        31.25864        -1.39150
C         28.14449        33.38343        -0.59227
C         26.82611        34.13467        -0.52381
C         28.16983        36.25397        -0.77057
C         26.92353        35.52833        -1.11327
C         28.10893        37.72150        -0.52202
C         26.87172        38.32598        -0.38521
C         30.36674         6.28693         1.45573
C         29.13779         5.58609         1.44574
C         30.54484         7.47985         0.74497
C         29.46928         7.99244        -0.09944
C         30.74793        10.25317        -0.23081
C         29.51119         9.47167        -0.49813
C         30.76495        11.58809        -0.91372
C         29.55889        12.43267        -0.45443
C         30.83993        14.51824        -1.20603
C         29.53796        13.85918        -0.96200
C         30.81521        16.00424        -1.35423
C         29.59346        16.74683        -1.44202
C         30.81258        19.06043        -1.18371
C         29.64807        18.26308        -1.80709
C         30.58281        20.31014        -0.37115
C         29.37574        21.07864        -0.85944
C         30.61782        23.08761        -0.79988
C         29.26294        22.49800        -0.31021
C         30.35161        25.09384         0.35434
C         29.30801        25.49198        -0.49454
C         30.72979        27.56173        -1.26418
C         29.39711        26.81022        -1.16484
C         30.65983        29.07579        -0.98011
C         29.44452        29.72682        -0.93177
C         30.59567        31.82757         0.08571
C         29.34648        31.12063        -0.42134
C         30.56836        33.34685        -0.09639
C         29.32334        34.03821        -0.30064
C         30.60142        36.21105        -0.49443
C         29.30141        35.53593        -0.04674
C         30.56029        37.68996        -0.16939
C         29.36161        38.37466        -0.22745
C         32.36978         6.66898         2.77362
C         31.45219         5.80103         2.31748
C         32.22480         8.12367         2.38746
C         31.84683         8.24065         0.90772
C         32.94108        10.52245         0.85163
C         31.84544         9.70322         0.45678
C         33.11295        11.81454         0.21411
C         32.18611        12.22963        -0.93669
C         33.49529        14.49843        -1.05972
C         32.15049        13.75369        -1.18836
C         33.33975        15.97782        -1.19282
C         32.08113        16.52396        -1.60867
C         33.38792        19.28853        -1.02382
C         32.07628        18.73881        -1.52223
C         33.09513        20.42468        -0.08480
C         31.84503        21.14595        -0.18698
C         32.90386        23.38108         0.30795
C         31.79981        22.53044        -0.06397
C         32.97194        24.78904         0.05290
C         31.76560        25.66955         0.34244
C         33.17129        27.61314        -0.74630
C         31.78920        27.10773        -0.21560
C         33.14186        29.11518        -0.48385
C         31.92768        29.76376        -0.66209
C         33.07430        31.86500         0.16867
C         31.87672        31.27079        -0.55852
C         33.02789        33.35266         0.42248
C         31.76787        34.06966         0.09113
C         33.03890        36.18740         0.21695
C         31.82203        35.47786         0.00430
C         32.98687        37.63694         0.23889
C         31.81675        38.33594         0.10614
C         33.39812         8.96891         2.73263
C         34.68445        10.96962         2.71513
C         33.72313        10.11843         2.04463
C         35.44091        11.91428         2.04443
C         34.33586        12.46091         0.20264
C         35.75756        14.57626         0.47272
C         34.63728        13.84489        -0.25850
C         36.11949        15.85917         0.03709
C         34.39155        16.86377        -0.99451
C         35.57828        18.83045         0.30972
C         34.26512        18.18915        -0.24052
C         35.36800        20.14830         0.95204
C         34.04404        20.75693         0.82358
C         35.29098        23.37830         1.04124
C         34.00010        22.84782         1.03216
C         35.40492        24.73529         0.62515
C         34.24594        25.42091         0.16626
C         35.60832        27.59801         0.20202
C         34.38178        26.84103        -0.22231
C         35.55324        29.07230         0.26777
C         34.37951        29.78813        -0.07948
C         35.53741        31.90926         0.52562
C         34.37305        31.18939         0.12337
C         35.49386        33.34920         0.60325
C         34.31360        34.08324         0.46223
C         34.25453        35.50130         0.41796
C         36.14707        13.02430         2.51288
C         37.58237        14.89858         2.11886
C         36.47487        14.13906         1.66829
C         37.86810        16.19834         1.65992
C         36.95091        16.76744         0.72867
C         37.88367        19.00353         1.22105
C         36.78586        18.20780         0.67565
C         37.84485        20.41181         1.32754
C         36.51858        21.05985         1.41696
C         37.76052        23.31427         1.50871
C         36.42884        22.60700         1.71938
C         37.78831        24.71596         1.37243
C         36.62739        25.46230         0.94497
C         37.86633        27.59385         1.23794
C         36.68434        26.85461         0.87701
C         37.85923        29.00160         1.16002
C         36.71201        29.75850         0.75039
C         36.71012        31.17373         0.80456
C         38.99909        16.96565         2.04578
C         40.23812        19.08479         1.99224
C         39.06772        18.32630         1.70833
C         40.24498        20.47330         1.89442
C         39.01326        21.16819         1.63813
C         40.20629        23.32296         1.87996
C         38.97520        22.59592         1.68802
C         40.20331        24.71332         1.87875
C         39.01587        25.44561         1.59984
C         39.02592        26.85119         1.58427
C         41.44718        21.23296         2.13708
C         41.42994        22.59334         2.11276
O         22.93933        31.75846         0.67920
O         25.11056        20.46305        -2.69082
O         20.62309        29.39087         1.45058
O         19.05097        34.57459        -1.95071
O         28.69944        26.94519        -2.46250
O         29.14263        22.33238         1.07443
O         35.65263        16.34199        -1.19639
O          8.08935        20.00143         3.18075
O         27.41920        18.62542        -2.73566
O         13.81699        24.85928        -1.08872
O         22.29422        33.61391        -2.40677
O         14.60683        33.46883         2.53914
O         12.60795        14.72199        -2.75117
O         28.29787        31.24470         0.61757
O         33.74710        21.69875         1.81284
O         31.48996        13.98087        -2.46162
O         32.26770        17.66105        -2.39469
O         15.87508        10.92923        -2.86466
O         16.50755         9.21861         1.22892
O         23.43573        35.99421        -2.39555
O         24.58631         8.61756        -1.99574
O         15.28013        29.76504        -0.96354
O          8.25435        19.81347        -0.42296
O         17.34853        16.96124         1.23273
O         27.63167         7.13951        -1.44274
O         20.19325         9.77679        -2.65275
O         29.80502         8.40869        -1.45687
O         21.19966        19.52364         1.15075
O         32.87395        32.39935         1.51529
O         15.03880        30.43370         2.40771
O         35.49911        27.04506        -1.17699
O         12.68952        29.06215        -0.99477
O         30.53806        10.93905        -2.14367
O         12.94693        10.97007        -2.74641
O         16.99448        26.09508         1.69074
O         35.45631        11.78432         0.63958
O          8.70387        27.38274         0.51399
O         17.67420        29.14273         1.87843
O         34.62857        13.91072        -1.73160
O         32.13896        25.68470         1.73509
O         25.62568        11.08211         0.63195
O         19.00271        12.24558        -3.08850
O         27.96190        35.71836        -2.12039
O         30.74705        23.57971        -1.90815
O         12.05160        28.82282         2.54055
O         35.75818        20.24614         2.37660
O         10.16941        21.70650         3.04128
O          6.30093        22.97772         2.67756
O         21.29209        23.58560         1.29797
H         21.30937        22.75425         1.81765
O         11.49425        31.47789         3.67020
H         11.86482        30.56807         3.75435
O         19.48742        17.37831        -2.41604
H         19.59496        16.59650        -3.00047
O         25.78924        36.80903        -2.80428
H         26.73428        36.69688        -3.06669
O         15.05892        33.19026        -1.05283
H         15.62528        32.67850        -1.66900
O         14.43825         8.77811        -2.41263
H         14.40916         9.34476        -3.21726
O         29.89662        18.27311        -3.22950
H         29.03092        18.10841        -3.67104
O         13.41970        17.17968        -2.39961
H         13.06221        16.58593        -3.09894
O         16.05649        27.32609        -1.60030
H         15.37465        27.89016        -2.03229
O         11.66045        19.59301         2.79450
H         11.48414        20.28915         3.46915
O         22.17684        14.07393        -3.12431
H         21.46527        13.51019        -3.49841
O         24.68511        16.68037         0.94604
H         24.58721        15.74369         1.21842
O         20.31028        24.30757        -2.16020
H         21.08943        24.49404        -2.74621
O         26.85720        20.89688         0.55095
H         27.62092        21.40220         0.96171
O         17.14303        21.12327         2.10608
H         16.74946        20.27872         2.44608
O         10.13853        15.41006        -2.57617
H         10.91085        15.52042        -3.17688
O         32.86651         7.56240         0.13902
H         32.63414         7.64412        -0.81027
O          5.27084        20.38853         3.15065
H          5.87412        20.11805         3.87593
O         29.74221        12.54696         0.99599
H         28.95233        12.98992         1.37294
O         33.48603        17.80691         0.92386
H         33.36248        18.59560         1.49816
O          8.78943        25.05011         3.29478
H          8.13114        24.58978         3.85782
O         34.16353        19.75344        -2.14040
H         33.93546        19.20170        -2.91944
O         25.61823        29.01484        -3.06863
H         26.26719        28.35116        -3.39039
O         31.08983         8.67654         3.13259
H         31.30408         8.62826         4.08780
O         19.16035         7.42276        -2.14885
H         19.67791         7.86764        -2.86053
O         22.86651        24.87662        -2.94008
H         23.46660        24.22811        -3.39468
O         36.20224        22.69152         3.14711
H         35.50709        22.02733         3.36231
O         14.44021        13.06566        -3.49530
H         14.31300        12.19805        -3.93957
O         31.44002        27.88293         0.95743
H         31.71645        27.32419         1.73951
O         32.86888        11.67986        -2.07160
H         32.15388        11.26408        -2.63015
O         25.77853        31.70877         0.69766
H         24.86203        31.63363         1.05834
O         16.13110        20.17803        -1.33408
H         15.97380        21.05745        -1.73732
O         26.61479        34.33669         0.92338
H         26.43976        33.42871         1.28603
O         20.69366        36.56072        -2.42776
H         20.38678        35.77078        -2.92615
O         21.77087        35.36890         0.84871
H         22.46570        34.76306         1.18201
O         29.14193        35.73036         1.37095
H         28.29573        35.29278         1.62849
O         30.23075        19.91389         0.98881
H         29.83893        20.74116         1.39870
O         33.30046        27.48120        -2.17405
H         34.26509        27.48874        -2.37413
O         15.80339        18.86811         2.06796
H         16.13603        17.99462         2.38398
O         17.96010        37.99384        -1.71570
H         17.15061        37.55097        -2.04759
O         30.09767        24.41359         1.45941
H         30.93780        24.52484         2.01398
O         26.95847        31.57732        -2.79352
H         26.38420        30.92398        -3.25846
O         27.04570        13.63693        -2.83588
H         27.90273        13.25268        -3.12270
O         31.90017        31.78849        -1.92197
H         32.33054        31.12820        -2.50507
O         24.41559        22.78386        -3.16917
H         24.88186        22.00373        -3.56437
O         30.64195        31.56241         1.49795
H         29.71005        31.51467         1.81402
O         30.65609        36.08483        -1.94315
H         31.43875        36.57935        -2.26345
O         31.12162        27.36760        -2.62421
H         30.29790        27.30393        -3.15928
H          5.29351        18.19794         1.83874
H          4.68166        20.34189         0.14205
H          4.40321        22.68635        -0.14880
H          5.55147        25.01860         0.11591
H          7.50251        14.28451         0.05842
H          6.31209        16.34025         0.56074
H          5.90376        27.09248         1.74678
H          7.95719        29.19763         3.23713
H          9.89849        10.23402        -0.31115
H          8.74114        12.24310        -0.29659
H          8.92204        31.37977         2.56724
H         10.10386        33.67906         2.17286
H         12.32859         6.38089         1.24720
H         11.10275         8.20888         0.21114
H         11.38085        35.89428         2.06532
H         12.57066        38.02221         1.85094
H         14.45732         5.33064         1.95093
H         14.59712        39.28228         1.24657
H         16.93670         5.27400         1.79491
H         16.92696        39.33659         0.52025
H         19.31473         5.01865         1.42980
H         19.50273        39.15147         0.63277
H         21.72425         4.84349         1.34549
H         21.96250        39.18922         0.39428
H         24.19512         4.67347         1.29929
H         24.42773        39.22462         0.19852
H         26.62112         4.63921         1.59839
H         26.82832        39.37492        -0.04867
H         29.03830         4.67946         2.06027
H         29.34833        39.45569        -0.01464
H         33.17629         6.35639         3.45334
H         31.45814         4.74094         2.61041
H         33.92392        38.17964         0.43158
H         31.82708        39.43172         0.21010
H         33.93849         8.74228         3.66592
H         34.78097        10.87206         3.80598
H         36.44330        33.88771         0.74700
H         35.18249        36.08213         0.53413
H         36.47969        13.05921         3.56021
H         38.20462        14.47661         2.92100
H         38.76931        29.55139         1.44437
H         37.61454        31.70048         1.14292
H         39.81893        16.49477         2.60655
H         41.15049        18.55647         2.30602
H         41.13847        25.26057         2.06993
H         39.96185        27.38461         1.80867
H         42.38187        20.68726         2.33073
H         42.35327        23.16651         2.28117
