         272
 CSIRO Nanostructure Databank - Neutral Graphene Oxide Data Set
C        -11.26788         0.78917        -0.27254
C        -10.00356         1.56835        -0.62789
C         -8.85004         0.85323         0.07121
C         -7.63591         1.60442         0.49425
C         -6.36417         0.84275         0.80361
C         -5.09767         1.42593         0.24028
C         -3.79368         0.66539         0.39228
C         -2.50644         1.41584         0.28523
C         -1.30480         0.78755         0.92310
C         -0.04600         1.57020         1.10336
C          1.25645         0.79743         1.25749
C          2.55186         1.41465         0.76280
C          3.85223         0.64210         0.80849
C          5.15559         1.35839         0.54665
C          6.43563         0.75292         1.09039
C          7.69812         1.54203         0.82627
C          8.92953         0.79188         0.40766
C          9.75627         1.52208        -0.67418
C         10.99770         0.76702        -1.06171
C        -10.00719         3.05707        -0.31602
C         -8.84307         3.77323        -0.10460
C         -7.56758         3.07896         0.23425
C         -6.27431         3.72316        -0.14443
C         -5.07485         2.82468        -0.30326
C         -3.74704         3.50877        -0.52866
C         -2.55454         2.90781         0.18421
C         -1.30741         3.70080         0.42400
C          0.02648         3.08822         0.93523
C          1.28188         3.55355         0.20449
C          2.59868         2.87341         0.46351
C          3.76294         3.49355         0.09269
C          5.07894         2.78598         0.05431
C          6.34649         3.59050        -0.07569
C          7.61340         3.03038         0.52955
C          8.89107         3.67025         0.06633
C          9.97656         2.97655        -0.31166
C         -8.74566         5.20087        -0.19478
C         -7.51790         5.86378        -0.49870
C         -6.35475         5.00250        -0.97698
C         -5.01551         5.75122        -1.11350
C         -3.74156         4.96501        -0.86606
C         -2.47197         5.75458        -0.69464
C         -1.28704         5.19687         0.09892
C          0.02259         5.73520        -0.48453
C          1.28273         4.95015        -0.31170
C          2.55844         5.76565        -0.46263
C          3.78214         4.99295         0.04897
C          5.04987         5.76986         0.06220
C          6.35124         5.07955        -0.17783
C          7.64651         5.84198         0.14245
C          8.57732         4.87145         0.92189
C         -7.40979         7.24441        -0.47466
C         -6.29495         8.03670        -1.13750
C         -4.97463         7.25602        -1.22753
C         -3.66297         8.07630        -1.19303
C         -2.43547         7.24319        -0.83425
C         -1.17960         7.99573        -0.35100
C          0.07361         7.21116        -0.65999
C          1.16263         7.98450         0.01933
C          2.44735         7.17287         0.17429
C          3.71775         7.92376         0.35516
C          5.03260         7.29378        -0.20255
C          6.24662         7.93122         0.46750
C          7.38042         7.22382         0.71973
C         -6.11743         9.43991        -0.58913
C         -4.95063        10.05685        -0.34739
C         -3.62852         9.32631        -0.30929
C         -2.37743        10.10465        -0.72932
C         -1.16491         9.44061        -0.80978
C          0.12978        10.03293        -0.99499
C          1.32337         9.37957        -0.57337
C          2.57399         9.99052        -0.51813
C          3.63164         9.45690         0.42660
C          5.00749        10.08199         0.38832
C          6.14993         9.38667         0.58927
C        -11.27682        -0.55337        -0.13086
C        -10.04933        -1.38987        -0.27787
C         -8.75616        -0.62878        -0.15864
C         -7.50984        -1.38255         0.22017
C         -6.38533        -0.65920         0.91006
C         -5.08248        -1.42648         1.10445
C         -3.77674        -0.71406         0.99991
C         -2.48080        -1.49814         0.89244
C         -1.23700        -0.69400         0.62905
C          0.06412        -1.41602         0.62492
C          1.25674        -0.70678         1.21654
C          2.58006        -1.44800         1.36622
C          3.90401        -0.74253         1.39968
C          5.21116        -1.59187         1.42968
C          6.50122        -0.75177         1.24459
C          7.81300        -1.55717         1.07334
C          9.11256        -0.74172         0.57703
C          9.83691        -1.35495        -0.61018
C         10.95847        -0.57912        -1.12955
C        -10.01391        -2.85920        -0.03831
C         -8.86176        -3.57092         0.08950
C         -7.53746        -2.89038         0.17825
C         -6.41291        -3.61570         0.88156
C         -5.09376        -2.89606         0.80051
C         -3.82301        -3.66353         0.57394
C         -2.47169        -2.99656         0.78774
C         -1.28510        -3.64469         0.06308
C          0.14611        -2.91876         0.29794
C          1.22408        -3.65439         1.08696
C          2.53551        -2.94589         1.27099
C          3.74420        -3.55248         0.59003
C          5.08440        -2.82777         0.56573
C          6.32030        -3.57355         0.22482
C          7.70064        -3.02009         0.55004
C          8.63240        -3.51963        -0.53175
C          9.66633        -2.64473        -1.01973
C         -8.86701        -5.09850         0.26539
C         -7.45221        -5.68473        -0.03796
C         -6.40736        -5.10439         0.91234
C         -5.07555        -5.83205         1.27623
C         -3.88405        -5.17938         0.56421
C         -2.59270        -5.91797         0.45675
C         -1.22776        -5.26616         0.16924
C         -0.03600        -5.93465         0.89702
C          1.23852        -5.15814         0.91835
C          2.40355        -5.75086         0.19317
C          3.65922        -4.93212         0.02117
C          4.92358        -5.62922        -0.39782
C          6.27192        -5.11236         0.14105
C          7.40872        -5.68723        -0.69293
C          8.49040        -4.78774        -1.04491
C         -7.37061        -7.17917        -0.19012
C         -6.26475        -7.90266         0.12775
C         -5.23077        -7.40738         1.12415
C         -3.84275        -8.12640         0.97729
C         -2.55844        -7.37396         0.82391
C         -1.28640        -8.14570         0.53154
C          0.02260        -7.44840         0.70498
C          1.31964        -8.15308         0.25262
C          2.34577        -7.15552        -0.28784
C          3.64550        -7.87876        -0.48098
C          4.90275        -7.08695        -0.68315
C          6.20645        -7.88069        -0.56125
C          7.35602        -7.00425        -1.04432
C         -6.19714        -9.32790        -0.18431
C         -5.13178       -10.10926         0.07699
C         -3.80128        -9.61693         0.59508
C         -2.74838        -9.92241        -0.55277
C         -1.35599        -9.36647        -0.30034
C         -0.23233        -9.88318        -0.87815
C          1.10462        -9.32571        -0.69724
C          2.24339        -9.88976        -1.20643
C          3.57656        -9.30944        -0.91172
C          4.86023        -9.84672        -1.43488
C          6.03770        -9.20242        -1.29456
O          3.19410        -0.97587         2.62233
O         -7.03506        -2.12402        -0.94937
O          1.10477         0.03148         2.47296
O          1.17174         3.78822        -1.23236
O         -4.95882         6.41490        -2.41863
O          8.82805         1.36230         1.73627
O          6.46062         0.16620         2.40801
O          5.09177         7.54009        -1.55952
O         -5.74771        -7.87192         2.33481
O          3.06452         7.30238         1.48547
O          1.98936        -8.68668         1.38106
O         -8.69797         1.26513         1.45225
O         -3.52929         3.92338        -1.89196
O         -2.13441         6.36926        -1.96032
O         -3.01246         0.68343        -0.84823
O          5.21924         1.65612        -0.87727
O          4.42471         5.40446         1.31770
O          1.74887        -3.40502         2.41996
O         -6.53775         0.19171         2.08506
O          0.16337         6.39512        -1.81656
O         -3.49534        -5.75027        -0.71297
O          3.35339        -3.77746        -0.81170
O         -9.25525        -1.00842        -1.47290
O         -2.32775         3.50744         1.48268
O         -6.75605         3.83229         1.21735
O          6.44936         4.25429        -1.37272
O          0.61137        -5.65682         2.15677
O         -6.60306         4.61505        -2.39196
O          7.75628         3.94646         1.75530
O         -0.48322        -0.80926        -0.61569
O         -2.25377        -2.37930         2.06119
O         -6.88250        -4.32584         2.05973
O          4.87996        -6.12415        -1.77089
O         -3.04812        -7.77712         2.13910
O          0.50877         8.14714         1.34548
O          3.74206        -8.88512         0.56006
O         -0.53627        -8.21909         1.79266
O         -4.39661        -0.93457         2.28948
O         -5.34678         1.70418        -1.18991
O          5.65219        -2.77175        -0.77775
O         -4.53867        -3.09772        -0.55314
O         -0.96183         1.26721         2.23108
O         10.08020        -0.86797         1.63092
O          8.13375        -3.49131         1.87923
O          1.94260        -6.15587        -1.19645
O          6.35631        -5.58836         1.46202
O          3.02421         0.63054        -0.39573
O         -0.99211         8.16124         1.11569
O         -2.69085       -11.33301        -0.71537
H         -2.66746       -11.71505         0.19067
O          5.32265        -2.15686         2.74115
H          5.45600        -1.42793         3.38554
O         -0.92577        -5.72246        -1.17244
H         -1.73310        -5.55141        -1.71331
O          3.10061         9.81882         1.73439
H          2.77801         8.98604         2.16174
O         -3.47762         8.55873        -2.53328
H         -3.39826         7.76502        -3.11073
O          8.34336         6.10114        -1.09909
H          7.71020         6.53220        -1.71357
O         -9.31741        -5.45628         1.56535
H         -8.64000        -5.15466         2.21410
O         -3.40416       -10.39742         1.72911
H         -3.08771        -9.77153         2.42168
O          8.86218         1.47286        -1.82983
H          9.24920         2.01714        -2.54721
O         -4.81133        -5.60308         2.65529
H         -5.17482        -6.41296         3.11683
O          0.19922         3.63751         2.26531
H         -0.41994         3.14586         2.85627
O         -7.07157        -5.15516        -1.34282
H         -7.57542        -5.62772        -2.03745
O          0.77489        -2.96614        -1.00875
H          0.49382        -2.17081        -1.51711
O         -3.46052         8.85494         1.05218
H         -3.18704         9.60341         1.62205
O         -6.80290         8.21944        -2.48670
H         -6.49835         7.43848        -3.00859
O          8.12894        -2.13054         2.40103
H          9.78591        -0.28999         2.37101
O          6.40872        -8.17338         0.83336
H          6.49907        -7.28783         1.30686
O          2.76991         5.99204        -1.86363
H          2.44137         5.21188        -2.36118
O         -9.81398         1.50955        -2.06375
H         -9.72415         0.54986        -2.29613
O         -1.62761        -3.38128        -1.29635
H         -0.84742        -3.62875        -1.84564
O         -1.39280         5.80211         1.40890
H         -0.83836         5.28380         2.04038
O         -7.76771         3.74825        -2.43713
H         -7.50853         3.08990        -3.12793
H         11.79836        -1.13720        -1.57205
H         11.86597         1.32518        -1.44278
H         10.97343         3.43310        -0.39851
H          9.39402         5.36499         1.49537
H          8.25827         7.75365         1.12706
H          7.09235         9.94016         0.73117
H          5.03929        11.18205         0.41373
H          2.71576        10.97771        -0.98731
H          0.19491        11.07483        -1.34638
H         -2.44091        11.18689        -0.92429
H         -4.96040        11.10960        -0.02125
H         -7.04866        10.02462        -0.52006
H         -8.29456         7.82322        -0.16204
H         -9.66454         5.80548        -0.13658
H        -10.92747         3.61289        -0.55818
H        -12.21186         1.34625        -0.16901
H        -12.21991        -1.06947         0.10728
H        -10.97826        -3.39134        -0.02035
H         -9.59368        -5.53546        -0.46907
H         -8.15795        -7.65446        -0.80033
H         -7.09862        -9.78159        -0.62638
H         -5.18039       -11.18393        -0.15319
H         -3.13050        -9.47706        -1.51311
H         -0.32809       -10.78244        -1.50640
H          2.20140       -10.79269        -1.83297
H          4.82228       -10.81312        -1.96030
H          6.94551        -9.67466        -1.70178
H          8.18533        -7.46950        -1.60063
H          9.22909        -5.13796        -1.78402
H         10.31920        -3.03617        -1.81588
