         490
 CSIRO Nanostructure Databank - Neutral Graphene Oxide Data Set
C         38.03125        49.92514        -2.35514
C         37.08259        50.47857        -3.15679
C         38.03306        52.71845        -2.95735
C         37.08398        51.88483        -3.46028
C         40.08246        48.93877        -0.09639
C         40.17940        50.06618        -0.99627
C         38.99316        50.75393        -1.61571
C         40.18924        53.15270        -1.68810
C         38.99129        52.26893        -1.93675
C         40.13821        54.49753        -1.29075
C         42.50411        49.18177         0.54068
C         41.19523        48.42848         0.49132
C         42.62850        50.25642        -0.54166
C         41.45132        50.50458        -1.30449
C         42.64662        53.20107        -1.35612
C         41.46842        52.60277        -1.82472
C         42.58808        54.59252        -1.10179
C         41.33047        55.21708        -1.09997
C         44.94523        46.23042         0.17219
C         43.77725        46.96558         0.10464
C         45.03018        49.04879         0.50655
C         43.75301        48.32878         0.45811
C         45.04851        50.48942        -0.05804
C         43.79471        51.03165        -0.66980
C         45.07910        53.10542        -1.05549
C         43.85865        52.40418        -1.14100
C         45.12276        54.51747        -0.88428
C         43.88939        55.37209        -1.11608
C         45.07864        57.20891         0.03785
C         43.90881        56.62203        -0.28370
C         47.40533        44.64274         0.74716
C         47.43918        46.03830         0.67656
C         46.15955        46.82496         0.85139
C         47.48252        48.88116         0.14152
C         46.28410        48.28169         0.46767
C         47.49378        50.25334        -0.36312
C         46.34011        50.98329        -0.53560
C         47.59731        53.07459        -0.86779
C         46.35572        52.32329        -1.26322
C         47.56370        54.39132        -0.50834
C         46.32832        55.15685        -0.54675
C         47.57080        57.25711        -0.05342
C         46.36081        56.56397        -0.21149
C         47.62156        58.69232         0.14828
C         49.83084        44.51289         0.69357
C         48.57822        43.88551         0.71201
C         49.88256        45.92790         0.66398
C         48.68858        46.70189         0.59862
C         49.95140        48.76829         0.11001
C         48.73850        48.13590         0.30144
C         50.04694        50.08620        -0.54690
C         48.77963        50.82203        -0.84731
C         50.11809        52.93901        -0.52772
C         48.87894        52.32541        -1.13258
C         50.08357        54.32092        -0.03011
C         48.78688        55.06400         0.01084
C         50.03245        57.20273         0.21294
C         48.83790        56.54949         0.02424
C         50.11755        58.69710        -0.01087
C         48.79041        59.36929         0.21575
C         52.25963        41.57173         0.26056
C         51.11986        42.25358         0.48360
C         52.40340        44.44160         0.66780
C         51.09554        43.71488         0.77494
C         52.44142        45.91011         0.56829
C         51.18061        46.62500         0.77872
C         52.50068        48.74366         0.12989
C         51.21348        48.13008         0.49187
C         52.52455        50.13784        -0.20425
C         51.33549        50.82121        -0.49335
C         52.61345        53.02494        -0.61419
C         51.31368        52.25474        -0.51296
C         52.55330        54.42658        -0.05521
C         51.35283        55.05405         0.12851
C         52.54612        57.19604         0.63989
C         51.25028        56.44173         0.71610
C         52.53761        58.61808         0.76186
C         51.29866        59.34630         0.67089
C         52.46445        61.36951         1.35433
C         51.29159        60.68730         1.13625
C         54.88247        40.11050        -0.07139
C         54.86595        41.51190         0.12113
C         53.57042        42.24087         0.03210
C         54.90613        44.41700         0.36688
C         53.61672        43.72318         0.17868
C         54.90793        45.82669         0.40289
C         53.65131        46.57277         0.42297
C         54.95697        48.68918         0.22206
C         53.68936        48.01417         0.27865
C         54.98853        50.11231         0.11050
C         53.78644        50.84851        -0.11221
C         55.04970        52.94964        -0.00636
C         53.82622        52.25283        -0.16473
C         55.03445        54.40851         0.17142
C         53.80452        55.10626         0.21425
C         54.99895        57.15440         0.91903
C         53.78285        56.49067         0.58682
C         54.92171        58.53806         1.51830
C         53.73984        59.30249         1.00885
C         55.01339        61.46667         1.32390
C         53.75566        60.78743         0.83965
C         55.04106        62.86638         1.30260
C         57.31258        40.06595         0.06956
C         56.06851        39.40843        -0.10991
C         57.31584        41.47192         0.32745
C         56.07510        42.20154         0.33422
C         57.31800        44.33843         0.68258
C         56.10990        43.66166         0.46500
C         57.37278        45.77337         0.58742
C         56.14477        46.52010         0.40332
C         57.41258        48.65670         0.32498
C         56.16784        47.95120         0.32359
C         57.43925        50.04234         0.27447
C         56.23419        50.80946         0.14417
C         57.53921        53.01894        -0.14860
C         56.25803        52.22421         0.05589
C         57.46860        54.29551         0.66675
C         56.22433        55.08126         0.53535
C         57.46134        57.14240         1.26487
C         56.22031        56.45141         0.91926
C         57.41170        58.56891         1.54233
C         56.23057        59.29125         1.50429
C         57.40495        61.47215         1.82891
C         56.20784        60.74480         1.59794
C         57.42987        62.89574         1.77348
C         56.21532        63.57366         1.52654
C         59.76605        37.23679        -0.19708
C         58.58586        37.93258        -0.19262
C         59.78309        40.03100         0.21124
C         58.55462        39.34261         0.02932
C         59.77882        41.44933         0.44334
C         58.55718        42.13990         0.54287
C         59.83912        44.28022         0.88458
C         58.53978        43.54696         1.08740
C         59.81496        45.75397         1.20302
C         58.59298        46.45470         0.66688
C         59.90243        48.62184         0.75475
C         58.70447        47.88132         0.19566
C         59.90555        49.99066         0.81002
C         58.74858        50.73679         0.25883
C         60.15845        52.93251         0.33529
C         58.82773        52.21172         0.04893
C         60.03175        54.37208         0.79856
C         58.73478        55.01696         1.03533
C         59.95177        57.16325         1.41737
C         58.68869        56.47504         1.25601
C         59.96248        58.56010         1.70818
C         58.66764        59.23668         1.94388
C         59.92850        61.45848         1.98282
C         58.65989        60.74968         2.09895
C         59.91927        62.90627         2.38151
C         58.66637        63.62852         1.95276
C         59.96204        65.69996         1.94299
C         58.74062        65.01509         1.86684
C         62.29049        35.71240        -0.08101
C         62.23729        37.16470         0.08507
C         61.01391        37.89188         0.03364
C         62.25394        40.00041         0.43855
C         61.01942        39.30932         0.21880
C         62.24484        41.43236         0.59558
C         61.04518        42.14015         0.58767
C         62.26916        44.34609         0.59218
C         61.02376        43.60413         0.71861
C         62.29023        45.72916         0.64737
C         61.09232        46.47599         0.87338
C         62.39656        48.56150         1.05475
C         61.12336        47.86452         0.91542
C         62.38666        49.98942         1.44829
C         61.07221        50.72670         1.35361
C         62.43159        52.90403         1.31018
C         61.04793        52.24775         1.40239
C         62.45601        54.28356         1.18998
C         61.19788        55.03088         1.10398
C         62.41629        57.15750         1.46892
C         61.17995        56.45737         1.35886
C         62.40243        58.57409         1.65106
C         61.16852        59.25859         1.83267
C         62.43403        61.45490         1.97329
C         61.17873        60.69159         2.32753
C         62.41518        62.87924         1.92086
C         61.20206        63.61724         2.01421
C         62.46101        65.75135         1.71770
C         61.21087        65.02587         1.93816
C         62.43772        67.14482         1.51373
C         64.71705        35.86900        -0.54197
C         63.44524        35.06925        -0.34971
C         64.69746        37.02560         0.48547
C         63.44254        37.85724         0.31414
C         64.77366        39.93986         0.63335
C         63.46234        39.25300         0.48814
C         64.83541        41.42908         0.73985
C         63.51862        42.19577         0.95434
C         64.79913        44.29312         0.11724
C         63.50421        43.57312         0.32513
C         64.82471        45.78944         0.17000
C         63.53792        46.49986         0.43208
C         64.86676        48.48787         1.45585
C         63.57708        47.88603         0.93676
C         64.93763        49.99388         1.08436
C         63.64951        50.75337         1.35996
C         64.94354        52.86770         1.31735
C         63.66056        52.13735         1.34419
C         64.90594        54.31569         1.32473
C         63.70448        55.01279         1.28590
C         64.87445        57.20126         1.36030
C         63.66679        56.46233         1.39152
C         64.85530        58.63851         1.38299
C         63.63348        59.30797         1.61884
C         64.88167        61.43741         1.68852
C         63.62958        60.73735         1.74524
C         64.81312        62.82415         1.99550
C         63.66166        63.60406         1.83850
C         64.86153        65.76783         1.16665
C         63.70211        65.04856         1.63036
C         64.77499        67.15396         0.89597
C         63.57804        67.83929         1.13080
C         67.26044        33.04933        -1.14723
C         66.05267        33.74578        -1.05198
C         67.22136        35.65953        -0.16804
C         66.00863        35.05167        -0.52826
C         67.21900        37.01881         0.48676
C         65.96612        37.82369         0.34852
C         67.23393        39.90196        -0.20595
C         66.00184        39.17158         0.30189
C         67.22637        41.40399        -0.00114
C         66.08231        42.13020         0.26848
C         67.25756        44.30816         0.01551
C         66.09038        43.57711         0.21082
C         67.33061        45.73854         0.22526
C         66.10394        46.47658         0.50662
C         67.42122        48.46493         1.12272
C         66.12129        47.76562         0.96794
C         67.43884        49.94922         1.42451
C         66.12943        50.70189         1.74006
C         67.47405        52.87898         1.58367
C         66.14416        52.18304         1.39970
C         67.42445        54.34509         1.19633
C         66.17784        55.06558         1.65118
C         67.27368        57.19973         0.87684
C         66.12223        56.51225         1.24851
C         67.24116        58.63309         0.73040
C         66.06125        59.38158         1.14078
C         67.42648        61.52047         0.98793
C         66.09128        60.78463         1.29145
C         67.31811        62.97346         0.51733
C         66.50395        63.86345         1.21068
C         66.89263        65.64291        -0.33027
C         66.10166        65.11410         0.71919
C         66.61613        67.05017        -0.79929
C         66.02842        67.84497         0.37965
C         66.77467        69.88188        -0.81072
C         65.87304        69.29746         0.00305
C         69.69698        31.44595        -0.46947
C         69.77817        32.88985        -0.89430
C         68.46882        33.63165        -0.74400
C         69.70360        35.62979         0.07875
C         68.45902        34.95879        -0.26418
C         69.59483        36.99747         0.47295
C         68.48936        37.77913         0.24853
C         69.80131        39.86479        -0.58191
C         68.59237        39.29252         0.28046
C         69.75294        41.38816        -0.58742
C         68.44193        42.07715        -0.50011
C         69.74700        44.30059        -0.44595
C         68.45636        43.60882        -0.46607
C         69.78186        45.68422        -0.13583
C         68.55889        46.39901         0.19882
C         69.81627        48.49907         0.48557
C         68.63390        47.81616         0.53695
C         69.94217        49.96374         0.86116
C         68.62831        50.72640         0.98945
C         69.87723        52.82856         0.69065
C         68.62334        52.08576         0.97925
C         69.80878        54.33899         0.52454
C         68.50459        55.02742         0.71729
C         69.54191        57.14862        -0.06698
C         68.46972        56.47623         0.50060
C         69.52305        58.59171        -0.19271
C         68.34041        59.29761         0.20223
C         69.37398        61.45111        -0.62785
C         68.13871        60.74888        -0.13583
C         69.22714        62.75314        -1.03416
C         68.07662        63.51056        -0.54958
C         68.74168        65.45289        -2.03132
C         67.90995        64.87120        -0.90971
C         68.88459        66.96701        -1.94511
C         67.84983        67.73375        -1.36445
C         68.98204        69.81310        -2.02856
C         67.88009        69.13719        -1.40536
C         69.06856        71.23348        -2.06643
C         72.07978        31.42918        -0.01932
C         70.82141        30.75660        -0.14094
C         72.14370        32.81089        -0.07570
C         70.99064        33.59906        -0.31518
C         72.24357        35.73716        -0.20780
C         70.97857        35.01118        -0.09441
C         72.51588        37.08411        -0.26122
C         71.53885        38.08244         0.10198
C         72.25299        40.08842        -1.10455
C         71.24618        39.33648        -0.40168
C         72.09718        41.42688        -1.30919
C         70.88213        42.12087        -0.91519
C         72.14368        44.28688        -0.77806
C         70.92113        43.58209        -0.76635
C         72.18436        45.64617        -0.48513
C         71.01876        46.35720        -0.16822
C         71.86025        48.59414        -0.88854
C         71.13625        47.81699         0.18712
C         71.77469        49.95219        -0.91555
C         70.92134        50.69059        -0.03733
C         71.99909        52.84465        -0.58988
C         70.96840        52.10064         0.00911
C         71.92057        54.24366        -0.74136
C         70.84953        54.98566        -0.28414
C         71.94598        57.20084        -0.74158
C         70.66540        56.40683        -0.75739
C         71.91002        58.55812        -0.73920
C         70.67657        59.28334        -0.60689
C         71.65273        61.41289        -1.59828
C         70.72703        60.79960        -0.57862
C         71.44237        62.64246        -2.11463
C         70.26142        63.43317        -1.79582
C         71.07143        65.44604        -2.97654
C         70.06907        64.73757        -2.22891
C         71.00781        66.79627        -3.17090
C         69.96545        67.60637        -2.58316
C         71.11686        69.73102        -3.23293
C         70.03141        69.04413        -2.62180
C         71.16774        71.11040        -3.25934
C         70.13477        71.86887        -2.66940
O         68.19642        42.87955        -1.71660
O         67.73772        48.98078         2.48671
O         49.42050        50.03976        -1.91717
O         58.58095        59.82868         3.29901
O         51.90124        43.99991         1.98310
O         64.10984        46.41642        -0.94577
O         53.48484        43.12766        -1.16414
O         49.26213        54.41143         1.25028
O         41.58152        51.34230        -2.42602
O         70.67710        37.61724         1.09784
O         59.01397        51.31256        -1.10493
O         65.04119        40.59749         1.94811
O         65.98776        63.43768         2.44599
O         70.28866        53.71393         1.78851
O         57.94167        54.21172         2.03480
O         51.21947        47.60577         1.86334
O         64.02664        43.72350        -1.02043
O         38.37449        51.74276        -0.71734
O         45.04423        50.23962         1.38995
O         61.55413        50.22116         2.64754
O         49.08194        52.46217        -2.58659
H         49.53750        51.62725        -2.86594
O         71.96556        47.87372         1.38770
H         71.77218        48.73379         1.83930
O         45.88063        46.77738         2.29340
H         45.10337        47.35305         2.46051
O         60.48234        52.59637         2.68464
H         60.87821        51.98429         3.34627
O         60.90579        52.97248        -0.90049
H         60.55061        52.25362        -1.47625
O         65.18840        50.05468        -0.34476
H         64.50885        49.51531        -0.80374
O         50.41704        58.86430        -1.45893
H         49.63589        58.53637        -1.95461
O         67.28642        36.70134         1.93778
H         66.40494        36.31318         2.17229
O         70.48900        49.98872         2.23108
H         69.80010        49.57095         2.80034
O         64.65297        36.50348        -1.84574
H         64.73502        35.80869        -2.53114
O         63.41726        42.47927         2.37764
H         63.83083        41.71316         2.84346
O         67.96113        65.22011        -3.26351
H         68.51668        65.52044        -4.01464
O         65.63108        66.98989        -1.85955
H         66.00934        66.42574        -2.57004
O         58.96637        47.78398        -1.25468
H         58.19294        47.34237        -1.66572
O         52.79994        53.20108        -2.06622
H         52.91408        52.31076        -2.46123
O         53.74562        61.04846        -0.62722
H         52.94098        60.61398        -0.98732
O         70.03604        32.85587        -2.35575
H         70.86221        32.34232        -2.48514
O         69.57057        39.43563        -1.97070
H         70.23096        39.89971        -2.52933
O         68.24827        61.48053         2.17305
H         67.80302        62.02879         2.85586
O         61.18495        60.56854         3.81365
H         60.32652        60.12031         4.03271
O         67.02813        67.77890         1.43638
H         66.69728        68.29504         2.20028
O         58.40493        43.39338         2.56532
H         59.13409        42.80578         2.86140
O         67.04834        39.74828        -1.63518
H         67.90085        39.93012        -2.10121
O         66.23975        55.10264         3.12357
H         66.61825        54.23818         3.42135
O         46.40053        52.05085        -2.69978
H         47.34268        52.16055        -2.99001
O         65.95460        50.68155         3.17800
H         66.66814        51.24384         3.56192
O         64.81049        48.30690         2.88533
H         65.46597        48.91861         3.30260
O         59.89058        62.94620         3.86467
H         60.53523        62.25457         4.16796
O         64.62323        36.41901         1.81161
H         64.39788        37.12829         2.45044
O         57.53795        53.45706        -1.53178
H         57.81739        52.68316        -2.07150
O         42.46625        49.85973         1.83111
H         43.35762        50.26743         1.97285
O         68.77590        39.73856         1.63555
H         69.40343        39.11982         2.07002
O         70.25747        56.30243        -2.17556
H         70.21583        57.21628        -2.52947
O         59.68995        45.84494         2.67201
H         59.04406        45.14596         2.94579
O         44.01089        55.82769        -2.51418
H         44.11364        55.02754        -3.07286
O         54.65010        58.31107         2.96085
H         55.40777        57.80486         3.32597
O         51.01720        56.25913         2.15850
H         50.28973        55.58890         2.23432
O         67.77918        52.84658         3.03819
H         68.70935        53.17421         3.11722
O         71.26867        61.14268         0.75103
H         70.53251        61.05749         1.39775
O         67.18236        60.77203        -1.24471
H         67.60956        60.35800        -2.02306
H         38.11565        48.83125        -2.27044
H         36.36099        49.83331        -3.67810
H         38.11970        53.74961        -3.33151
H         36.36404        52.25863        -4.20241
H         39.10637        48.44941         0.03719
H         39.17085        55.00591        -1.17603
H         41.11028        47.54388         1.13933
H         41.26481        56.29662        -0.90466
H         44.92840        45.16375        -0.09156
H         42.83945        46.47485        -0.19988
H         45.06828        58.16549         0.57975
H         42.95817        57.11267        -0.02988
H         46.44281        44.12250         0.84451
H         46.67859        59.25068         0.23239
H         48.50734        42.79067         0.76310
H         48.76833        60.46352         0.31956
H         52.20771        40.47841         0.14852
H         50.17474        41.69524         0.55796
H         52.43732        62.39499         1.74985
H         50.33470        61.18907         1.34282
H         53.93908        39.57231        -0.23388
H         54.12419        63.42199         1.06235
H         56.03146        38.32748        -0.29452
H         56.18551        64.67036         1.49286
H         59.74343        36.15376        -0.37497
H         57.65223        37.38158        -0.36345
H         59.92505        66.79600         1.90129
H         57.83479        65.61555         1.70260
H         61.36011        35.13307         0.00712
H         61.50325        67.70928         1.62135
H         63.44570        33.97714        -0.48188
H         63.50275        68.92057         0.95646
H         67.25550        32.03331        -1.56616
H         65.13027        33.25635        -1.39680
H         66.68387        70.95677        -1.02191
H         65.09086        69.91437         0.46930
H         68.73096        30.92534        -0.53824
H         68.28066        71.84409        -1.60592
H         72.97845        30.84915         0.23037
H         70.77050        29.68100         0.08200
H         73.09152        33.29748         0.19708
H         73.08912        35.10009        -0.51195
H         73.50115        37.39581        -0.64181
H         73.21914        39.60855        -1.32290
H         72.91874        41.99783        -1.76037
H         73.08669        43.76738        -0.99217
H         73.15136        46.16766        -0.47576
H         72.52354        48.06657        -1.58917
H         72.36982        50.50793        -1.65537
H         72.86314        52.32606        -1.02546
H         72.70663        54.73514        -1.33176
H         72.90979        56.67969        -0.82293
H         72.84961        59.12611        -0.79773
H         72.56224        60.86183        -1.88007
H         72.18028        63.05177        -2.81990
H         71.94470        64.90025        -3.36086
H         71.81520        67.28085        -3.73507
H         71.93891        69.16628        -3.69216
H         72.01618        71.62075        -3.73593
H         70.18386        72.96644        -2.68820
