         620
 CSIRO Nanostructure Databank - Neutral Graphene Oxide Data Set
C         23.65647        27.75584         3.05973
C         23.59782        28.99876         2.45761
C         23.43349        31.68633         1.20876
C         23.36022        32.91935         0.64738
C         23.19441        35.96879         0.39582
C         23.18545        37.32516         0.30521
C         23.15250        40.31135         0.12895
C         23.10759        41.68695        -0.12481
C         23.02631        44.60195        -0.80551
C         23.02270        45.96625        -1.00918
C         26.26392        25.27056         4.11184
C         25.07071        25.95703         4.14582
C         25.94705        28.20486         3.60224
C         24.87193        27.29461         3.63729
C         26.00388        29.36072         2.79515
C         24.74999        29.83101         2.28025
C         25.87720        31.88158         1.50553
C         24.68054        31.10318         1.63128
C         25.85272        33.16601         0.88320
C         24.57286        33.71898         0.27185
C         25.72398        36.03669         0.46328
C         24.44635        35.22795         0.60188
C         25.64039        37.46465         0.13297
C         24.39299        38.12221         0.20084
C         25.59970        40.27564        -0.14514
C         24.33452        39.55291         0.06794
C         25.56122        41.76608        -0.41131
C         24.24901        42.45772        -0.44400
C         25.54491        44.60401        -0.65340
C         24.22807        43.85021        -0.70180
C         25.47926        46.02878        -1.13574
C         24.24352        46.70576        -1.19474
C         25.43281        48.78135        -1.63739
C         24.23874        48.09109        -1.49154
C         28.55666        23.53935         3.13880
C         28.46793        24.95828         2.86658
C         27.48628        25.77573         3.52364
C         28.58266        27.84097         2.61336
C         27.70487        27.16761         3.49190
C         28.51202        29.28988         2.42814
C         27.26893        30.01881         2.51879
C         28.17982        32.29964         2.03869
C         27.11518        31.37913         2.02931
C         28.24050        33.47677         1.28871
C         27.02512        33.93498         0.74627
C         28.22047        36.08100         0.12193
C         26.95613        35.25406         0.01541
C         28.11309        37.44670        -0.38905
C         26.82636        38.13769        -0.34700
C         27.88866        40.20594        -1.24356
C         26.78290        39.51325        -0.57042
C         27.96473        41.67391        -1.31881
C         26.68662        42.38425        -1.18954
C         27.96706        44.57371        -1.52415
C         26.67758        43.86587        -1.33877
C         27.93332        45.96643        -1.54740
C         26.69233        46.70369        -1.40440
C         27.94306        48.85519        -1.56641
C         26.67907        48.11756        -1.57635
C         27.96140        50.24920        -1.37946
C         30.53701        23.24745         1.68991
C         29.57705        22.75997         2.69493
C         30.44348        24.73214         1.35712
C         29.47469        25.58891         2.09377
C         30.64238        27.62487         1.25358
C         29.52954        27.00772         1.94951
C         30.69228        29.07764         1.14677
C         29.69709        29.87159         1.80945
C         30.83444        31.94229         0.95051
C         29.95699        31.24998         1.83672
C         30.75137        33.34383         0.69424
C         29.57134        34.21522         1.19079
C         30.68742        36.19325         0.06317
C         29.42770        35.50019         0.39860
C         30.58804        37.59007        -0.51897
C         29.25098        38.14599        -0.75337
C         30.41382        40.20307        -1.82227
C         29.17091        39.42636        -1.46587
C         30.42417        41.66912        -1.64833
C         29.17162        42.37422        -1.53917
C         30.44524        44.48571        -1.75768
C         29.18891        43.81956        -1.62334
C         30.45416        45.95030        -2.00052
C         29.14994        46.71294        -1.90315
C         30.41704        48.83732        -1.49467
C         29.17982        48.16627        -1.64846
C         30.39255        50.23524        -1.24482
C         29.16875        50.91631        -1.20773
C         33.08294        20.42922         1.52522
C         31.91296        21.14053         1.75361
C         32.96892        23.15857         0.94006
C         31.82345        22.51477         1.45375
C         32.93154        24.60438         0.58000
C         31.66602        25.39031         0.79235
C         32.96547        27.53365         0.46081
C         31.72703        26.85847         0.88245
C         32.78881        28.86996        -0.17025
C         31.72276        29.71169         0.42704
C         32.88283        31.76593        -0.41155
C         31.80710        31.12838         0.28285
C         32.94618        33.16475        -0.46881
C         31.82731        33.94620        -0.00342
C         32.87760        35.89434        -1.08585
C         31.83264        35.34296        -0.32030
C         32.63446        37.15600        -1.73511
C         31.65582        38.04704        -1.42694
C         32.99107        40.22841        -1.77693
C         31.71470        39.45597        -1.92800
C         32.93394        41.62519        -1.62836
C         31.65594        42.35003        -1.66795
C         32.97831        44.44774        -2.05082
C         31.65717        43.77841        -1.71311
C         32.97614        45.97673        -1.92057
C         31.70346        46.71496        -1.78929
C         32.92884        48.78493        -1.28303
C         31.68308        48.08070        -1.53683
C         32.90647        50.25742        -1.22847
C         31.63982        50.95053        -0.78015
C         32.87600        53.10165        -0.81195
C         31.72166        52.43334        -1.04913
C         35.59290        18.94966         1.02583
C         35.44006        20.28794         0.68450
C         34.23308        21.05553         1.00039
C         35.34708        23.12104         0.14216
C         34.17946        22.44478         0.72185
C         35.33888        24.48329        -0.07336
C         34.29149        25.30099         0.64845
C         35.30870        27.42354        -0.54235
C         34.23615        26.78305         0.25999
C         35.28895        28.77446        -0.81127
C         33.99269        29.49933        -0.78528
C         35.30901        31.65964        -1.22324
C         33.98430        30.97479        -0.99269
C         35.34483        33.11482        -1.07748
C         34.16329        33.82965        -0.92671
C         35.40237        35.94926        -1.37049
C         34.15274        35.24562        -1.20899
C         35.49380        37.39403        -1.43864
C         34.45512        38.18477        -1.96328
C         35.41352        40.23180        -1.16662
C         34.26128        39.55105        -1.66169
C         35.35121        41.64221        -0.99127
C         34.13750        42.36128        -1.31287
C         35.29146        44.50324        -0.90090
C         34.15062        43.77984        -1.33458
C         35.37590        45.90779        -0.96400
C         34.23774        46.69443        -1.48519
C         35.34975        48.80559        -0.72463
C         34.14286        48.12536        -1.13854
C         35.36808        50.20347        -0.56655
C         34.18895        51.00051        -0.91528
C         35.21942        53.01954         0.09235
C         34.10686        52.40829        -0.47972
C         35.18260        54.40463         0.51993
C         37.75169        18.71648        -0.09629
C         36.74202        18.18234         0.66061
C         37.65832        20.13917        -0.45152
C         36.51882        20.95384         0.00018
C         37.75343        23.02667        -0.55437
C         36.52101        22.33459        -0.20963
C         37.77189        24.43465        -0.73079
C         36.47667        25.14522        -0.74676
C         37.75176        27.35680        -1.09250
C         36.48314        26.63446        -0.94647
C         37.77362        28.73940        -1.05270
C         36.53098        29.49702        -1.04236
C         37.81615        31.61759        -1.04694
C         36.56898        30.88617        -1.13881
C         37.84775        33.02636        -1.04729
C         36.62209        33.78136        -1.50438
C         37.83074        35.91368        -0.87083
C         36.62741        35.24957        -1.19711
C         37.83884        37.33534        -0.69323
C         36.65934        38.07447        -0.98898
C         37.77332        40.19185        -0.44888
C         36.61590        39.50429        -0.89441
C         37.70709        41.61605        -0.29006
C         36.50669        42.32010        -0.55208
C         37.70356        44.48323        -0.10332
C         36.37921        43.76376        -0.14777
C         37.72252        45.88276        -0.15254
C         36.52554        46.61835        -0.49936
C         37.72273        48.73306        -0.03364
C         36.53282        48.03938        -0.43083
C         37.70665        50.14186         0.17537
C         36.50451        50.88098        -0.03844
C         37.60043        52.90940         0.81185
C         36.44883        52.27141         0.27905
C         37.50009        54.28078         1.32598
C         36.24188        55.00405         1.11292
C         40.22289        15.90542        -0.04827
C         39.03544        16.52034        -0.20340
C         40.23055        18.71547        -0.54352
C         38.92265        17.93845        -0.70142
C         40.23032        20.08761        -0.56455
C         38.98560        20.86828        -0.70939
C         40.19894        23.04749        -0.71548
C         38.98841        22.33331        -0.59668
C         40.19206        24.42755        -0.96987
C         38.96795        25.12490        -0.99404
C         40.25358        27.29953        -1.19799
C         38.96641        26.56293        -1.48836
C         40.24887        28.73007        -1.05110
C         39.03258        29.45874        -1.03708
C         40.27135        31.58265        -0.76356
C         39.04380        30.87846        -0.93520
C         40.26980        33.00914        -0.60647
C         39.05453        33.73927        -0.77542
C         40.23960        35.86150        -0.26820
C         39.05303        35.17490        -0.65700
C         40.23471        37.29706        -0.02709
C         39.02381        38.02150        -0.27915
C         40.08595        40.11586         0.40531
C         38.96398        39.44698        -0.14261
C         39.99096        41.56008         0.69100
C         38.85472        42.32969         0.18499
C         40.12998        44.45302         0.44310
C         38.88623        43.74456         0.21047
C         40.14428        45.87995         0.35981
C         38.94476        46.59126         0.10755
C         40.14965        48.71689         0.44108
C         38.93888        48.01487         0.16772
C         40.13271        50.12990         0.60684
C         38.89784        50.83360         0.54764
C         40.08006        52.96001         1.00120
C         38.84723        52.23189         0.84412
C         40.07919        54.36425         1.14382
C         38.84977        55.07712         1.50729
C         39.99552        57.22067         1.14917
C         38.86092        56.54289         1.45946
C         42.71315        15.90773        -0.17316
C         41.48696        16.60375        -0.22902
C         42.73965        18.69596        -0.50865
C         41.49015        18.00011        -0.42666
C         42.76356        20.12116        -0.55050
C         41.49018        20.83414        -0.36691
C         42.75337        23.02626        -0.77462
C         41.48046        22.34163        -0.49661
C         42.73420        24.42375        -1.07691
C         41.44421        25.10651        -1.48385
C         42.69332        27.29906        -1.18797
C         41.44517        26.59614        -1.20572
C         42.71282        28.72359        -1.06011
C         41.48869        29.43763        -0.94171
C         42.74271        31.54331        -0.60001
C         41.49824        30.85386        -0.75653
C         42.74741        32.97809        -0.35237
C         41.48445        33.70938        -0.32160
C         42.66142        35.82625         0.29462
C         41.44035        35.10533        -0.09064
C         42.67651        37.29891         0.41052
C         41.41279        38.00185         0.41967
C         42.32562        40.21295         1.30598
C         41.26214        39.41333         0.73129
C         42.53121        41.55919         1.09550
C         41.29462        42.33969         0.97561
C         42.59699        44.44192         0.79460
C         41.33214        43.77098         0.71209
C         42.60542        45.87206         0.69164
C         41.37961        46.58310         0.54005
C         42.60765        48.71637         0.74355
C         41.38037        48.00435         0.55884
C         42.60157        50.16059         0.76693
C         41.36273        50.84788         0.76341
C         42.54288        52.99818         0.73511
C         41.33090        52.27240         0.84491
C         42.50884        54.42724         0.69252
C         41.27442        55.10873         0.91712
C         42.42888        57.24360         0.64692
C         41.24102        56.53408         0.89971
C         43.92247        16.57343        -0.31319
C         45.22370        18.71159        -0.56038
C         43.97148        17.97885        -0.47148
C         45.22918        20.13371        -0.64977
C         43.96735        20.84522        -0.61955
C         45.21856        23.00045        -0.58384
C         43.94296        22.28342        -0.67336
C         45.20205        24.51062        -0.84311
C         43.91856        25.16157        -1.16776
C         45.13739        27.33037        -1.57477
C         43.90088        26.58010        -1.32997
C         45.18324        28.76024        -1.28144
C         43.95502        29.43349        -1.02184
C         45.24873        31.49372        -0.56800
C         43.94749        30.82816        -0.73147
C         45.26222        32.98994        -0.35687
C         43.95164        33.66469        -0.29603
C         45.20978        35.83988        -0.24098
C         43.99503        35.07661         0.09044
C         45.14287        37.22691        -0.09068
C         43.97781        37.88525         0.43659
C         45.19313        40.08373         0.69032
C         44.19329        39.18624         1.00383
C         45.14343        41.51969         0.92783
C         43.85838        42.25667         1.40652
C         45.02512        44.45727         0.85796
C         43.81733        43.73096         0.97449
C         45.05751        45.87032         0.82820
C         43.82942        46.59766         0.82478
C         45.05392        48.78074         1.28681
C         43.81441        48.01916         0.88213
C         45.10117        50.20577         0.73644
C         43.82930        50.88651         0.69782
C         44.98123        53.02299         0.29486
C         43.78628        52.30199         0.60038
C         44.92171        54.44371         0.11946
C         43.69181        55.16467         0.41436
C         43.62414        56.57481         0.40314
C         47.66384        18.71246        -0.65165
C         46.46430        18.02899        -0.55381
C         47.69423        20.11553        -0.77819
C         46.47517        20.83682        -0.76510
C         47.66575        23.02861        -0.84338
C         46.49234        22.28914        -0.77454
C         47.67052        24.47680        -0.92689
C         46.47296        25.15735        -1.15462
C         47.71517        27.32700        -1.31107
C         46.49391        26.56137        -1.55344
C         47.68552        28.73549        -1.35444
C         46.43577        29.44876        -1.29478
C         47.67346        31.59633        -1.17929
C         46.47245        30.84488        -1.05282
C         47.63410        33.05105        -1.10647
C         46.47519        33.74202        -0.76124
C         47.58736        35.96025        -0.89430
C         46.40404        35.19029        -0.70408
C         47.61347        37.34631        -0.62581
C         46.32525        38.03921        -0.42119
C         47.64901        40.10367         0.28055
C         46.33821        39.50512        -0.05378
C         47.62257        41.58306         0.63042
C         46.29674        42.24981         0.70847
C         47.57473        44.46929         0.48862
C         46.27171        43.71638         0.56451
C         47.57489        45.90882         0.79875
C         46.31695        46.61354         0.86136
C         47.56331        48.72763         1.22015
C         46.31157        47.99285         1.03938
C         47.59768        50.24667         0.83630
C         46.28479        50.89226         0.46080
C         47.24085        53.02663        -0.55079
C         46.19859        52.29679         0.07396
C         47.16581        54.40147        -0.78635
C         46.03982        55.11915        -0.39502
C         50.26883        20.21624        -0.57697
C         48.98559        20.82465        -0.97143
C         50.19315        23.09581        -0.70187
C         48.96218        22.34773        -1.01965
C         50.14479        24.51337        -0.66309
C         48.91447        25.20622        -0.91141
C         50.14082        27.36902        -0.91863
C         48.91496        26.62255        -1.02125
C         50.14637        28.75266        -1.15807
C         48.92027        29.47116        -1.31705
C         50.17928        31.61860        -1.53160
C         48.89275        30.89025        -1.38480
C         50.16272        33.11801        -1.64557
C         48.77437        33.81470        -1.76692
C         50.13314        35.98097        -1.12017
C         48.81945        35.29181        -1.37729
C         50.08877        37.29998        -0.43149
C         48.83601        38.07251        -0.47942
C         50.11965        40.15611         0.05192
C         48.89153        39.43134        -0.11113
C         50.09957        41.59755         0.22945
C         48.87768        42.31584         0.40633
C         50.05135        44.46462         0.54457
C         48.86238        43.73717         0.49857
C         50.05140        45.85784         0.85501
C         48.79695        46.56630         0.98727
C         50.02867        48.66478         1.38607
C         48.82695        47.98263         1.21027
C         50.07858        50.09546         1.16606
C         48.96191        50.76099         0.57061
C         50.55210        52.44486        -0.27077
C         49.27745        51.87644        -0.23366
C         51.39992        20.95561        -0.45224
C         52.59246        23.14858        -0.21930
C         51.41063        22.40446        -0.52287
C         52.50944        24.54032        -0.02115
C         51.32865        25.25661        -0.36757
C         52.54355        27.42037        -0.34035
C         51.34678        26.68016        -0.52886
C         52.62459        28.78586        -0.65928
C         51.46988        29.45093        -1.35755
C         52.60883        31.64546        -0.97333
C         51.42789        30.93903        -1.13010
C         52.61358        33.09756        -1.03087
C         51.40279        33.82904        -1.21731
C         52.61912        35.93452        -0.83223
C         51.40066        35.22087        -1.02784
C         52.64485        37.36215        -0.63634
C         51.40186        38.03711        -0.23767
C         52.58572        40.21615        -0.17574
C         51.35966        39.50024        -0.11851
C         52.56788        41.65192        -0.00590
C         51.33426        42.30979         0.16625
C         52.56450        44.47551         0.57206
C         51.31701        43.81485         0.06598
C         52.53161        45.82895         0.96069
C         51.27360        46.53602         1.06134
C         52.48972        48.59326         1.64504
C         51.28224        47.92800         1.39713
C         52.40726        50.04373         2.06421
C         51.34610        50.73659         1.23286
C         51.56986        51.91962         0.53579
C         55.00978        23.18887         0.22581
C         53.91184        22.53099        -0.19601
C         54.90940        24.50806         0.95356
C         53.65179        25.27607         0.55240
C         54.99008        27.46316         0.29016
C         53.69240        26.77282         0.31913
C         55.02387        28.82705        -0.05001
C         53.81818        29.52164        -0.45273
C         55.06467        31.64753        -0.54924
C         53.84924        30.93536        -0.67658
C         55.09883        33.07633        -0.73853
C         53.84991        33.80233        -0.92543
C         55.08722        35.97760        -1.06828
C         53.83959        35.21719        -0.92829
C         55.10677        37.43437        -0.83655
C         53.83865        38.11584        -0.67349
C         55.02495        40.31805        -0.59979
C         53.79476        39.53047        -0.45623
C         55.04276        41.72399        -0.14386
C         53.80942        42.38642         0.05133
C         55.00182        44.48485         0.64218
C         53.79423        43.79072         0.42219
C         54.98943        45.82911         1.07032
C         53.75271        46.51650         1.22549
C         54.96423        48.62164         1.72167
C         53.74241        47.91304         1.55424
C         54.90761        50.05087         1.95614
C         53.74332        50.72886         2.06604
C         57.38709        24.68885         1.18152
C         56.18287        25.33846         0.86272
C         57.43471        27.43966         0.58622
C         56.18977        26.73265         0.58712
C         57.47185        28.84266         0.31544
C         56.26422        29.54538        -0.00271
C         57.51974        31.65652        -0.13642
C         56.28357        30.94489        -0.24304
C         57.53813        33.07578        -0.30680
C         56.32105        33.76003        -0.63268
C         57.60010        35.95998        -0.54226
C         56.40014        35.20157        -0.92638
C         57.57240        37.37914        -0.53199
C         56.32589        38.09303        -0.70370
C         57.57497        40.27551        -0.26344
C         56.35562        39.56995        -0.69357
C         57.52478        41.67965         0.01469
C         56.28664        42.37173         0.04783
C         57.43373        44.32201         1.15698
C         56.31939        43.87551         0.22162
C         57.45234        45.82728         1.30397
C         56.23232        46.53040         1.33227
C         57.46185        48.57662         1.88655
C         56.21563        47.92776         1.64179
C         58.59931        25.36579         1.18437
C         59.87933        27.45793         0.88421
C         58.64360        26.74384         0.88118
C         59.90918        28.80621         0.63352
C         58.71400        29.53621         0.35607
C         59.94223        31.69587         0.20361
C         58.73383        30.95721         0.13841
C         59.95204        33.06794         0.05922
C         58.76074        33.79409        -0.17241
C         59.95819        35.98533         0.03235
C         58.78026        35.24740        -0.22729
C         59.95494        37.36790        -0.00371
C         58.77546        38.10132        -0.26178
C         59.99099        40.27713         0.04197
C         58.77455        39.55066        -0.16065
C         59.98571        41.63197         0.23716
C         58.76472        42.37306         0.32832
C         59.94521        44.44485         1.06766
C         58.76410        43.71195         0.77457
C         59.90655        45.76596         1.46426
C         58.67160        46.49127         1.55227
C         58.65205        47.88502         1.83638
O         25.19973        35.65813         1.77648
O         48.34428        52.39864        -1.12774
O         36.17016        25.71082        -2.09662
O         34.40574        31.30158        -2.35463
O         53.28636        26.19916         1.63471
O         38.11674        20.43698        -1.82037
O         28.18723        39.50847        -2.52727
O         25.94452        41.28526         0.90758
O         50.38251        32.29393        -2.84100
O         32.93869        28.86624        -1.61680
O         38.11695        54.49522         2.62803
O         33.52029        37.52159        -2.75933
O         33.66717        50.85909        -2.30247
O         43.30762        39.52737         2.02638
O         46.81273        44.14792        -0.75177
O         31.00752        37.38423         0.87695
O         27.03893        27.95194         4.45046
O         47.50432        49.78777         2.23372
O         45.45779        32.07946         0.78112
O         45.81984        26.90292        -2.80423
O         33.90633        46.52708        -2.92116
O         26.24401        43.02937        -2.45032
O         50.72144        37.31331         0.87864
O         55.86782        35.56551        -2.24263
O         40.35160        41.96333         2.05243
O         43.41967        35.25545         1.42486
O         45.22884        23.95826         0.52901
O         41.47995        21.69342         0.83670
O         32.08187        24.92472        -0.55290
O         34.01523        27.58919         1.50873
O         30.94910        39.76366        -3.13026
O         49.04975        21.54705        -2.25071
O         29.30775        31.99290         2.83311
O         55.71856        40.14564        -1.88628
O         46.09815        39.12660        -1.43404
O         49.51205        36.05178        -2.44452
O         29.86195        23.73486         0.47487
O         26.83287        34.99597        -1.37953
O         47.72872        40.54147         1.67439
O         29.72208        46.34036        -3.21330
O         57.11360        43.78214         2.47824
H         57.81205        44.07879         3.09867
O         34.69269        25.22371         2.04763
H         34.50997        26.10885         2.44765
O         33.17101        44.14137        -3.46164
H         33.69255        44.88578        -3.84414
O         35.90274        43.73306         1.25722
H         36.59997        43.29251         1.78967
O         56.62693        44.43066        -1.09083
H         55.94368        44.11741        -1.72023
O         38.89032        26.43106        -2.95967
H         37.98224        26.09451        -3.15578
O         36.63680        33.69480        -2.98044
H         36.21499        32.84627        -3.23887
O         29.94261        34.64276         2.53242
H         29.92413        33.84106         3.10486
O         31.64354        50.78094         0.68144
H         30.81899        51.17909         1.03210
O         51.32335        44.08507        -1.39926
H         50.47476        43.74865        -1.76066
O         54.75511        24.16184         2.36199
H         54.30179        24.92886         2.78238
O         48.40592        33.79344        -3.16533
H         48.99095        34.43621        -3.62539
O         41.36631        24.97277        -2.94172
H         40.55420        25.46168        -3.23088
O         44.95591        48.93524         2.74539
H         45.79726        49.36816         3.03039
O         51.75644        29.32217        -2.80451
H         51.17792        29.96037        -3.27759
O         43.99202        42.29324         2.85656
H         43.89657        41.36877         3.17717
O         25.93296        44.66230         0.76150
H         25.20175        45.08730         1.25716
O         38.64357        17.82210        -2.12618
H         38.45172        18.73577        -2.45403
O         24.63687        33.60412        -1.16922
H         25.48274        34.07581        -1.47547
O         51.92169        50.07203         3.44846
H         52.56365        49.57391         3.99651
H         22.76182        27.11814         3.09170
H         22.63433        29.33017         2.04857
H         22.50161        31.12848         1.37814
H         22.38022        33.30220         0.32566
H         22.24891        35.41374         0.30668
H         22.21850        37.83606         0.19481
H         22.20223        39.80799         0.35513
H         22.12724        42.18171        -0.07411
H         22.06182        44.07758        -0.74283
H         22.06680        46.50384        -1.08546
H         26.23111        24.20500         4.38654
H         24.16972        25.39469         4.43773
H         25.39627        49.86348        -1.82211
H         23.28062        48.62411        -1.57175
H         27.83760        23.10865         3.85002
H         27.02582        50.81977        -1.31781
H         29.67413        21.73524         3.08110
H         29.14905        51.99673        -1.00805
H         33.09149        19.35221         1.73966
H         31.03698        20.60513         2.14396
H         32.89036        54.19796        -0.90498
H         30.82274        52.99426        -1.34212
H         34.80761        18.43479         1.59542
H         34.24907        54.96992         0.39249
H         36.77356        17.12841         0.97127
H         36.15564        56.03498         1.48279
H         40.26324        14.84087         0.22886
H         38.10687        15.93976        -0.10247
H         39.99296        58.32037         1.12564
H         37.94278        57.08844         1.71712
H         42.70464        14.81850        -0.02351
H         42.40736        58.34283         0.63840
H         44.84987        15.98701        -0.27332
H         44.52646        57.17009         0.20990
H         48.60155        18.14066        -0.66408
H         46.49140        16.93369        -0.48844
H         48.00512        54.90375        -1.28385
H         46.01343        56.20311        -0.56353
H         50.31043        19.13638        -0.37443
H         50.73347        53.31913        -0.90841
H         52.33385        20.44528        -0.17732
H         52.55500        52.40513         0.55577
H         55.99262        22.69950         0.16334
H         54.02054        21.52723        -0.63218
H         55.84982        50.61173         2.03059
H         53.76433        51.80794         2.27931
H         57.36686        23.62258         1.44544
H         57.48589        49.64719         2.12889
H         59.53004        24.83583         1.43166
H         60.80897        26.91285         1.10182
H         60.87675        29.32409         0.65262
H         60.89534        31.18422         0.38722
H         60.91347        33.59218         0.13003
H         60.89820        35.47180         0.27018
H         60.89514        37.89132         0.21051
H         60.95522        39.75383         0.02112
H         60.94516        42.14514         0.38340
H         60.92916        43.97450         0.93118
H         60.84597        46.30383         1.65732
H         59.60165        48.40603         2.02572
