         420
 CSIRO Nanostructure Databank - Neutral Graphene Oxide Data Set
C         28.12277        27.71957        -1.39335
C         27.85809        28.89851        -0.48596
C         26.77453        29.80155        -0.98716
C         27.98479        31.80246        -0.23458
C         26.82956        31.14045        -0.79812
C         27.98385        33.19921         0.01653
C         26.78012        33.96953        -0.01978
C         27.99413        36.02068         0.51939
C         26.78373        35.31510         0.24882
C         28.00161        37.43694         0.75868
C         26.79852        38.18947         0.87144
C         28.03937        40.27697         1.13873
C         26.81691        39.55047         1.07573
C         28.06321        41.71278         1.31129
C         26.86372        42.45357         1.55121
C         28.10021        44.54834         1.62134
C         26.88007        43.81721         1.71351
C         28.13176        45.96272         1.74327
C         30.40382        27.47142        -0.53466
C         29.29977        27.03799        -1.34917
C         30.30464        28.79763         0.07750
C         29.13272        29.63915        -0.18202
C         30.41704        31.70278         0.33049
C         29.17707        31.02348         0.00030
C         30.42421        33.13316         0.43452
C         29.20860        33.87515         0.32986
C         30.46117        35.98094         0.71892
C         29.21870        35.29019         0.53177
C         30.47157        37.39876         0.82642
C         29.24339        38.12811         0.87093
C         30.50606        40.25643         1.01510
C         29.25666        39.55400         1.01737
C         30.52166        41.67508         1.07472
C         29.29564        42.40931         1.24356
C         30.52253        44.58104         1.24722
C         29.31386        43.84515         1.37913
C         30.54782        45.99027         1.37726
C         29.31640        46.65952         1.63033
C         32.87013        24.65781        -0.81937
C         31.67499        25.36923        -0.78878
C         32.83432        27.39728        -0.00533
C         31.61389        26.74071        -0.40244
C         32.88749        28.77683         0.21369
C         31.62910        29.50758         0.41882
C         32.88074        31.61010         0.62264
C         31.63497        30.97411         0.43251
C         32.84678        33.03516         0.97393
C         31.63809        33.82359         0.71180
C         32.95159        35.93619         0.82151
C         31.68640        35.23600         0.78493
C         32.94295        37.38596         0.77874
C         31.72242        38.10366         0.86422
C         32.97582        40.23688         0.91042
C         31.73647        39.53367         0.91397
C         32.98292        41.67713         0.90088
C         31.76281        42.36732         0.94534
C         33.03973        44.57338         0.81204
C         31.73057        43.83849         0.83845
C         33.06345        45.96339         1.33076
C         31.80949        46.73198         1.35212
C         33.16112        48.79622         1.36033
C         31.91930        48.10998         1.45788
C         35.34811        23.08000        -0.68921
C         35.32741        24.49787        -0.54396
C         34.09188        25.22631        -0.44195
C         35.33169        27.40873        -0.16182
C         34.10090        26.59887         0.18583
C         35.36805        28.78380         0.06145
C         34.12878        29.50080         0.29823
C         35.38665        31.62960         0.60710
C         34.12098        30.89891         0.53903
C         35.40236        33.00484         0.81870
C         34.18377        33.77762         1.09185
C         35.42672        35.88885         0.61860
C         34.17300        35.22899         0.85210
C         35.39487        37.35578         0.26118
C         34.17069        38.10699         0.72499
C         35.47566        40.25471         1.15221
C         34.19591        39.50024         0.83153
C         35.46917        41.68974         0.70831
C         34.24909        42.40288         0.79591
C         35.52709        44.51647         0.68064
C         34.29728        43.81025         0.80689
C         35.58210        45.95033         0.76035
C         34.40866        46.68988         1.26070
C         35.62989        48.83788         0.88817
C         34.37972        48.15500         1.17882
C         35.72090        50.25149         0.95409
C         37.78184        23.07027        -0.90112
C         36.53112        22.39542        -0.85325
C         37.79170        24.49273        -0.72612
C         36.56634        25.19109        -0.54659
C         37.85354        27.42380        -0.43861
C         36.53342        26.67294        -0.55427
C         37.86179        28.82980        -0.02213
C         36.63031        29.51965         0.11151
C         37.88741        31.62767         0.42205
C         36.63058        30.91068         0.39617
C         37.88418        33.01618         0.51720
C         36.68606        33.75467         1.02440
C         37.89539        35.89701         0.33918
C         36.63517        35.21075         0.60046
C         37.91688        37.30768         0.16979
C         36.70022        38.02961         0.58914
C         37.93747        40.21562         0.25560
C         36.76428        39.49878         0.82009
C         37.86261        41.59298         0.10841
C         36.67516        42.35634         0.43823
C         37.90946        44.49603         0.04433
C         36.70711        43.78501         0.37553
C         37.93781        45.92273         0.07210
C         36.75724        46.65085         0.45814
C         38.01728        48.78425         0.25731
C         36.79628        48.09843         0.54713
C         38.08880        50.20539         0.36048
C         36.90981        50.91078         0.71508
C         40.30018        20.27752        -1.41884
C         39.08217        20.97359        -1.32581
C         40.24564        23.14815        -1.30967
C         39.00954        22.36282        -1.16118
C         40.27487        24.54231        -0.83404
C         39.05978        25.18650        -0.63192
C         40.37369        27.32859        -0.07454
C         39.05883        26.59379        -0.19114
C         40.35655        28.80062        -0.08425
C         39.12569        29.49788         0.08662
C         40.39566        31.58037         0.33287
C         39.14881        30.91346         0.27777
C         40.43059        33.01608         0.69776
C         39.14114        33.76546         0.65302
C         40.34551        35.89562         0.06264
C         39.12788        35.21356         0.35482
C         40.33239        37.30535        -0.20540
C         39.10873        38.01904        -0.04869
C         40.27732        40.10865        -0.59695
C         39.10916        39.46240        -0.14644
C         40.20850        41.54000        -0.90772
C         38.95352        42.31794        -0.55515
C         40.23734        44.44220        -0.75326
C         39.05204        43.77718        -0.39021
C         40.28282        45.87330        -0.69694
C         39.12853        46.61239        -0.28293
C         40.33880        48.75317        -0.55415
C         39.17346        48.05184        -0.18309
C         40.46194        50.15879        -0.36104
C         39.33938        50.89239         0.11932
C         40.70074        52.92062         0.21234
C         39.48631        52.28599         0.36919
C         42.78001        20.23396        -1.26696
C         41.53779        20.92446        -1.35535
C         42.82940        23.08570        -1.05085
C         41.58291        22.38937        -1.40575
C         42.79129        24.50118        -0.84556
C         41.55087        25.21887        -0.72230
C         42.80160        27.33894        -0.58339
C         41.59661        26.60825        -0.44695
C         42.81750        28.77916        -0.44222
C         41.58457        29.49212        -0.18497
C         42.85270        31.62790        -0.10179
C         41.60482        30.90185         0.02697
C         42.86052        33.02609        -0.00784
C         41.73222        33.80051         0.61714
C         42.77214        35.88990        -0.25786
C         41.58811        35.20064         0.04541
C         42.76372        37.29499        -0.54881
C         41.53579        38.00542        -0.51908
C         42.71508        40.09970        -1.20510
C         41.52098        39.41745        -0.78275
C         42.61619        41.54310        -1.48031
C         41.45003        42.28502        -1.13470
C         42.57910        44.42709        -1.54015
C         41.41055        43.70283        -1.16931
C         42.62380        45.85536        -1.50006
C         41.46167        46.55611        -1.11142
C         42.77266        48.73741        -1.43128
C         41.43695        48.01647        -1.19327
C         42.89403        50.12704        -0.97957
C         41.73282        50.82396        -0.55285
C         43.12225        52.83795        -0.31180
C         41.84839        52.20657        -0.22174
C         43.97329        20.91764        -1.19528
C         45.30386        23.03159        -0.96433
C         44.03791        22.34629        -1.06512
C         45.29758        24.46069        -0.47945
C         44.01800        25.22022        -0.76149
C         45.24886        27.35217        -1.18515
C         44.00971        26.61386        -0.77638
C         45.26165        28.81562        -0.80535
C         44.03264        29.49265        -0.54284
C         45.28425        31.64777        -0.54956
C         44.07254        30.93407        -0.41684
C         45.28011        33.05280        -0.40254
C         44.05158        33.74921        -0.21703
C         45.22740        35.89126        -0.36257
C         44.02276        35.17745        -0.26370
C         45.21621        37.30473        -0.54820
C         43.98129        38.00549        -0.75869
C         45.27844        40.00910        -1.28272
C         43.97016        39.38841        -1.14516
C         45.50804        41.22493        -1.95604
C         43.60932        42.29851        -2.14427
C         44.85045        44.44300        -2.47122
C         43.67788        43.71050        -2.08922
C         45.05169        45.77578        -2.10425
C         43.87809        46.53719        -1.74614
C         45.24632        48.59258        -1.71612
C         43.98455        47.92611        -1.58852
C         45.33505        49.99613        -1.42435
C         44.17342        50.74499        -1.01395
C         44.24582        52.13275        -0.67238
C         47.75916        23.12259        -1.09072
C         46.53437        22.41817        -1.16110
C         47.81701        24.50985        -0.90781
C         46.56589        25.22279        -0.78713
C         47.72858        27.35846        -0.96941
C         46.52720        26.60859        -0.85859
C         47.60363        28.70990        -1.27736
C         46.46358        29.49943        -0.97834
C         47.82085        31.69357        -0.32137
C         46.59263        31.01993        -1.00376
C         47.73814        33.07995        -0.05947
C         46.50398        33.78503        -0.29010
C         47.68339        35.91867        -0.04624
C         46.47326        35.18964        -0.23046
C         47.67137        37.32358        -0.15744
C         46.44976        37.99837        -0.48386
C         47.69865        40.09394        -0.67016
C         46.46681        39.37989        -0.78127
C         47.71925        41.48590        -0.95212
C         46.63635        42.03399        -1.70387
C         47.67362        44.29059        -1.70501
C         46.73827        43.37551        -2.18457
C         47.58701        45.68804        -1.95739
C         46.36461        46.41627        -2.13879
C         47.63522        48.58827        -2.53286
C         46.40424        47.83926        -2.06512
C         47.74697        49.93784        -1.86822
C         46.64763        50.59712        -1.42541
C         50.33096        24.65143        -0.76048
C         49.08176        25.24013        -0.82431
C         50.26471        27.44986        -0.20195
C         49.00090        26.69966        -0.57085
C         50.32759        28.93419        -0.09357
C         49.43019        29.78958        -0.63771
C         50.11483        31.71175         0.65505
C         49.12505        31.10392        -0.11430
C         49.97018        33.11858         1.13636
C         48.87385        33.82878         0.39595
C         50.10084        35.97985         0.50256
C         48.88875        35.22715         0.30271
C         50.10595        37.35293         0.31084
C         48.89204        38.04913        -0.01822
C         50.09905        40.21513        -0.03058
C         48.89577        39.44130        -0.25720
C         50.05078        41.65300        -0.25030
C         48.87536        42.26571        -0.68778
C         50.12352        44.33440        -1.23416
C         48.79423        43.77117        -0.79541
C         50.06825        45.55681        -2.12244
C         48.87988        46.45791        -1.71987
C         50.10132        48.30061        -2.84441
C         48.91442        47.78906        -2.42572
C         51.53228        25.37807        -0.47908
C         52.74803        27.48572         0.21722
C         51.55719        26.73063        -0.19594
C         52.64454        28.78561         0.71900
C         51.34277        29.47674         0.83250
C         52.47481        31.68503         1.66530
C         51.28662        30.96461         1.14233
C         52.41457        33.14758         1.77342
C         51.30647        33.82636         1.21020
C         52.39805        36.12874         1.44104
C         51.42453        35.24850         0.67917
C         52.40503        37.47346         1.25591
C         51.42682        38.11294         0.29469
C         52.27284        40.54218         1.11264
C         51.26296        39.61912         0.43294
C         52.45899        41.83710         0.29417
C         51.30340        42.38116        -0.27012
C         52.54944        44.18599        -1.52980
C         51.28275        43.66266        -0.98418
C         52.61609        45.53424        -2.08684
C         51.38812        46.29251        -2.24519
C         51.34938        47.59846        -2.66412
C         55.08849        27.33884         0.95940
C         54.01508        26.79147         0.33443
C         55.11382        28.75450         1.34007
C         53.80569        29.56549         1.15535
C         54.64057        31.16116         2.82149
C         53.61943        30.85497         1.90767
C         54.45510        33.47722         3.23442
C         53.44976        33.96808         2.36990
C         54.61377        36.21350         2.61088
C         53.28405        35.48115         2.48155
C         54.73306        37.64144         2.12612
C         53.36212        38.34455         2.04800
C         54.52202        40.46428         2.23884
C         53.51088        39.80521         1.59976
C         54.74547        42.55336         1.11061
C         53.70009        42.58499         0.18581
C         55.04128        44.42878        -0.98410
C         53.85544        43.56860        -0.90893
C         55.05723        45.51720        -1.86978
C         53.87647        46.06370        -2.39282
C         56.03551        29.19373         2.38946
C         55.78618        30.34390         3.07976
C         55.52101        34.25017         3.68770
C         55.65948        35.58844         3.23315
C         55.69307        38.45634         2.96609
C         55.56729        39.79134         2.99929
C         55.93369        43.32881         0.97801
C         56.09979        44.21741        -0.06049
O         30.79663        28.89587         1.46034
O         32.28499        44.38949        -0.43058
O         44.56891        41.62991        -2.91226
O         39.75880        33.35798         1.97670
O         33.45188        33.33736         2.27925
O         54.68316        41.84547         2.29880
O         50.89011        29.89289         2.15388
O         40.92487        22.96069        -2.59302
O         36.98796        38.54503         1.93454
O         39.66629        26.78745         1.11855
O         54.91195        29.65743         0.20015
O         48.71907        29.38895        -1.77928
O         37.23280        27.21382        -1.74379
O         39.19105        41.86326        -1.93504
O         54.46559        32.17089         3.74903
O         33.88518        46.12386         2.52225
O         41.79992        48.54511        -2.51713
O         45.85406        43.78314        -3.20182
O         53.33734        43.16882        -2.20701
O         49.33412        26.97059         0.85578
O         51.96895        35.08203        -0.67276
H         52.13373        35.99625        -1.02161
O         45.28921        24.34220         0.99857
H         46.12856        23.90562         1.25909
O         42.19882        34.01886         1.98761
H         41.38960        34.04376         2.55269
O         27.37723        28.33991         0.79560
H         28.15589        27.95763         1.25514
O         47.42744        48.84337        -3.96367
H         46.58697        49.34061        -4.05315
O         51.99200        37.89205        -1.05492
H         51.40725        38.34794        -1.69780
O         49.51007        33.06605         2.54476
H         49.96593        32.31340         2.98122
O         49.00277        46.75794        -0.28759
H         48.33046        47.43831        -0.06958
O         52.83290        38.42416         3.41054
H         52.17420        39.15785         3.42175
O         45.18708        27.34599        -2.66377
H         45.86270        27.97725        -2.99281
O         35.42690        40.39135         2.61115
H         35.83864        39.57293         2.97930
O         55.24944        37.60606         0.76581
H         56.06743        37.06704         0.76359
O         36.86839        33.79263         2.49607
H         37.82818        33.69075         2.68800
O         34.20200        26.33798         1.64163
H         34.00152        27.18041         2.10405
O         48.50606        44.23508         0.55918
H         48.67079        45.21344         0.55788
O         52.59716        35.69190         3.76643
H         52.57155        36.67287         3.91320
O         35.33924        37.42318        -1.20733
H         34.49230        37.01909        -1.49202
O         49.75330        45.06997        -3.45971
H         50.52852        44.56972        -3.79113
O         46.73191        31.36954        -2.42155
H         47.57977        30.97290        -2.72403
O         51.60342        40.93815         2.37341
H         50.78333        41.42367         2.13328
H         27.30500        27.35757        -2.03422
H         25.88856        29.34247        -1.45060
H         25.98471        31.75717        -1.13657
H         25.82223        33.47479        -0.22765
H         25.82872        35.85652         0.23018
H         25.82658        37.68211         0.81252
H         25.85832        40.07815         1.16503
H         25.90344        41.92642         1.62533
H         25.94490        44.36218         1.90720
H         27.19223        46.50272         1.92998
H         29.42220        26.14104        -1.97442
H         29.30465        47.75233         1.74044
H         32.84716        23.62684        -1.20055
H         30.75267        24.85978        -1.09868
H         33.11966        49.89452         1.35286
H         31.01399        48.72820         1.53696
H         34.40699        22.51514        -0.65134
H         34.83377        50.84210         1.21918
H         36.49717        21.30304        -0.96018
H         36.92401        52.00614         0.78849
H         40.27729        19.17886        -1.46473
H         38.16019        20.37629        -1.30648
H         40.79536        53.99117         0.44518
H         38.63001        52.87178         0.72866
H         42.77886        19.13429        -1.28700
H         43.20130        53.90687        -0.06538
H         44.90732        20.34002        -1.16962
H         45.20871        52.65884        -0.71049
H         48.68793        22.55419        -1.23907
H         46.58187        21.34813        -1.40953
H         48.72980        50.43149        -1.84852
H         46.77008        51.61375        -1.02622
H         50.42827        23.56362        -0.89011
H         50.13283        49.29673        -3.30970
H         52.46109        24.79102        -0.44968
H         52.27828        48.14867        -2.87233
H         55.96772        26.72076         1.19487
H         54.06668        25.73832         0.02687
H         55.99819        46.07076        -2.00396
H         53.94661        47.01783        -2.93370
H         56.86322        28.53125         2.68103
H         56.45009        30.65376         3.89839
H         56.28599        33.79769         4.33026
H         56.61579        36.09890         3.41410
H         56.52344        37.97540         3.50083
H         56.26815        40.42020         3.56644
H         56.71062        43.21607         1.74547
H         57.01313        44.82390        -0.13788
