         344
 CSIRO Nanostructure Databank - Neutral Graphene Oxide Data Set
C          1.24594         3.38704         0.31154
C          0.04130         4.06779         0.22287
C          1.19347         6.22518         0.37776
C          0.00893         5.46757         0.24734
C          1.19087         7.67161         0.36031
C          0.00200         8.40475         0.11150
C          1.14715        10.56754         0.24648
C         -0.02442         9.78575         0.06120
C          1.11167        11.98210         0.21199
C         -0.06399        12.74526        -0.01242
C          1.19042        14.87308        -0.13480
C         -0.03703        14.12443        -0.11401
C          1.21665        16.32045        -0.33283
C         -0.02516        17.08957        -0.43619
C          1.22930        19.10469        -1.17324
C         -0.05152        18.39257        -0.78729
C          1.21845        20.62173        -0.99514
C          0.06189        21.35467        -1.21275
C          1.18449        23.52090        -0.94989
C          0.04354        22.77354        -1.19669
C          1.17949        24.95544        -0.90189
C          0.01328        25.69060        -0.68596
C          1.24882        27.79764        -0.44382
C          0.03667        27.08533        -0.51583
C          1.27797        29.19456        -0.11558
C          3.69946         3.42813         0.51154
C          2.46646         4.10533         0.44552
C          3.65459         6.26783         0.68581
C          2.43937         5.53933         0.49915
C          3.61591         7.69274         0.79513
C          2.40978         8.38468         0.59240
C          3.58577        10.53581         0.56920
C          2.39842         9.84660         0.50620
C          3.58842        11.97037         0.17251
C          2.36423        12.76425         0.55329
C          3.66302        14.85117        -0.09509
C          2.39391        14.17936         0.00883
C          3.69166        16.31231        -0.24368
C          2.42153        17.00111        -0.35462
C          3.68139        19.17664        -0.77972
C          2.38919        18.51354        -0.35931
C          3.67740        20.65097        -0.65294
C          2.45902        21.31234        -0.75430
C          3.73171        23.46103        -0.95029
C          2.44049        22.80284        -0.49860
C          3.73836        24.95292        -1.14389
C          2.43106        25.73689        -1.26569
C          3.70388        27.76403        -0.48289
C          2.48657        27.11026        -0.64390
C          3.71951        29.17685        -0.17698
C          2.46621        29.86201        -0.01074
C          6.15158         3.44741         0.58812
C          4.91710         4.13894         0.61764
C          6.14848         6.28452         0.81555
C          4.89792         5.56952         0.73059
C          6.15324         7.70795         0.92456
C          4.85712         8.40616         1.30370
C          6.13669        10.62302         0.75560
C          4.85199         9.90004         0.98076
C          6.19093        11.89416        -0.09814
C          4.87095        12.67253        -0.13448
C          6.12401        14.91144         0.24080
C          4.85667        14.14643        -0.03659
C          6.19559        16.23208        -0.52131
C          4.89616        16.98496        -0.34739
C          6.19596        19.18194        -0.31902
C          4.95875        18.43201        -0.63322
C          6.16656        20.60839        -0.29362
C          4.94053        21.33833        -0.48520
C          6.20703        23.44717        -0.48919
C          4.98383        22.74345        -0.59143
C          6.27770        24.89810        -0.94809
C          4.98472        25.67433        -0.83750
C          6.19746        27.77057        -0.39109
C          4.96689        27.04230        -0.59075
C          6.17849        29.17640        -0.17098
C          4.92836        29.85761        -0.07016
C          8.61672         3.43581         0.57471
C          7.38092         4.13900         0.64624
C          8.65804         6.26936         1.05229
C          7.36500         5.56504         0.75558
C          8.63227         7.73619         0.72595
C          7.38819         8.42967         0.80953
C          8.61776        10.54872         0.56952
C          7.40854         9.84993         0.71976
C          8.61237        12.04189         0.78121
C          7.37817        12.75449         0.29112
C          8.66111        14.85794        -0.11292
C          7.38211        14.09862         0.14383
C          8.57896        16.33645         0.18636
C          7.43430        17.02071        -0.10628
C          8.59967        19.22061         0.13190
C          7.39086        18.48776        -0.08923
C          8.59196        20.60847         0.22313
C          7.37385        21.33027        -0.02593
C          8.57541        23.52425         0.34951
C          7.37440        22.75433        -0.13893
C          8.64465        24.95744        -0.11626
C          7.46688        25.64672        -0.40322
C          8.63901        27.77211        -0.02567
C          7.44230        27.06673        -0.33599
C          8.62694        29.21658         0.04974
C          7.39854        29.88544        -0.02051
C         11.07667         3.41193         0.27382
C          9.86338         4.11195         0.50428
C         11.10096         6.22890         0.45828
C          9.88917         5.54032         0.57696
C         11.10056         7.70629         0.13435
C          9.82483         8.43366         0.49817
C         11.10218        10.56959         0.07121
C          9.82677         9.84337         0.43257
C         11.11869        12.03864         0.44261
C          9.90084        12.75900         0.46818
C         11.11838        14.88485         0.40466
C          9.89697        14.15484         0.38451
C         11.12729        16.31077         0.40278
C          9.82916        17.06956         0.63560
C         11.14959        19.18930         0.31253
C          9.88684        18.44066        -0.02902
C         11.13589        20.59770         0.42909
C          9.83671        21.32868         0.71843
C         11.06871        23.46097         0.36259
C          9.89609        22.78742         0.30677
C         11.15977        24.91223        -0.05204
C          9.85834        25.66527         0.07996
C         11.04771        27.79141         0.68822
C          9.85139        27.06074         0.13540
C         11.08355        29.25577         0.31551
C          9.86555        29.92162         0.14204
C         13.54937         3.41104        -0.03038
C         12.30402         4.09127         0.25894
C         13.58637         6.20606         0.68691
C         12.31136         5.50716         0.39975
C         13.59910         7.70436         0.80939
C         12.34801         8.46302         0.54350
C         13.61025        10.57594         0.48298
C         12.35622         9.82414         0.48399
C         13.59012        11.99590         0.42675
C         12.33911        12.73292         0.45653
C         13.56588        14.89739         0.49037
C         12.34816        14.16714         0.46106
C         13.58596        16.30229         0.44162
C         12.34153        17.01393         0.38247
C         13.60233        19.17842         0.38222
C         12.35747        18.47357         0.35387
C         13.58736        20.60790         0.42503
C         12.34546        21.29631         0.49755
C         13.60982        23.48840         0.53468
C         12.32210        22.76260         0.84523
C         13.59985        24.92336         0.52986
C         12.37385        25.64638         0.46561
C         13.54016        27.80235         0.57183
C         12.35757        27.06196         0.52017
C         13.54344        29.23442         0.47702
C         12.31491        29.92983         0.32843
C         15.94946         3.44148        -0.55965
C         14.76013         4.06435        -0.06135
C         15.90557         6.26923        -0.31577
C         14.91342         5.45953         0.51611
C         15.93117         7.75217        -0.19097
C         14.95015         8.43439         0.74551
C         16.01684        10.59774         0.01296
C         14.83730         9.90132         0.39991
C         16.00447        12.01288         0.03676
C         14.81733        12.69057         0.36214
C         16.11399        14.90173         0.60629
C         14.81598        14.14442         0.64106
C         16.06298        16.34507         0.34636
C         14.85307        17.02323         0.38402
C         16.07178        19.19671         0.40619
C         14.84443        18.47782         0.35388
C         16.03719        20.62316         0.51799
C         14.82520        21.33048         0.48533
C         16.07065        23.50983         0.45825
C         14.81771        22.78790         0.50570
C         16.05640        24.94684         0.47187
C         14.83601        25.62594         0.55786
C         16.00182        27.79235         0.09527
C         14.85354        27.11094         0.82357
C         16.01571        29.27930         0.38050
C         14.78075        29.93874         0.46576
C         18.30930         3.48498        -1.32641
C         17.12700         4.14737        -0.79035
C         18.33488         6.31134        -0.89475
C         17.16788         5.58085        -0.66396
C         18.35118         7.74200        -0.89957
C         17.18429         8.48463        -0.50909
C         18.32703        10.62841        -1.06148
C         17.19056         9.87091        -0.42455
C         18.46623        12.05916        -0.60809
C         17.17624        12.82686        -0.48020
C         18.65437        14.84431         0.19339
C         17.35648        14.12001         0.29242
C         18.64038        16.35850         0.43466
C         17.33266        17.03163        -0.09408
C         18.55071        19.17767         0.25536
C         17.33259        18.50746         0.25608
C         18.61316        20.61205         0.59452
C         17.28994        21.37041         0.71806
C         18.54707        23.53207         0.49497
C         17.29927        22.82987         0.51751
C         18.55054        24.96673         0.47692
C         17.30918        25.67880         0.45512
C         18.51529        27.82013         0.37527
C         17.31045        27.08496         0.36739
C         18.48086        29.26365         0.36451
C         17.23983        29.95530         0.40007
C         19.47448         4.14827        -1.47381
C         20.74865         6.32443        -1.58516
C         19.64224         5.54731        -0.93327
C         20.72876         7.67120        -1.62040
C         19.57141         8.44826        -1.19475
C         20.82502        10.60342        -1.22963
C         19.61548         9.85086        -1.12509
C         20.85656        11.96695        -1.06362
C         19.66829        12.72741        -0.74309
C         20.76078        14.95439        -1.06996
C         19.74931        14.18385        -0.56416
C         20.77137        16.38301        -0.91592
C         19.79884        17.07028        -0.23975
C         20.92278        19.29109        -0.35079
C         19.78584        18.51972        -0.11723
C         20.92501        20.69723        -0.21917
C         19.81719        21.38740         0.25554
C         20.99218        23.57087         0.39860
C         19.78822        22.82655         0.40737
C         20.99184        24.95264         0.43939
C         19.78119        25.68762         0.45278
C         20.95647        27.90094         0.45529
C         19.77311        27.13636         0.43662
C         20.91493        29.29909         0.42660
C         19.70092        29.97717         0.38729
O         13.49537         6.86657         2.01441
O          5.51082        10.71354         2.07764
O         18.04475        20.94516         1.90494
O          3.97712        12.18060        -1.21094
O         15.31105         7.11177        -1.36020
O         18.29709        14.06740         1.40038
O          6.54587        11.44021        -1.38301
O         15.53012        14.49345         1.89203
O          3.82127        24.00614        -2.30642
O          4.36165        18.71256        -1.98382
O          8.50788        12.17442         2.25710
H          7.71370        11.67103         2.54384
O         10.83898        27.78415         2.15123
H          9.97537        28.21685         2.32407
O          2.26266        26.02137        -2.69510
H          2.53088        25.20207        -3.17181
O          6.30314        15.93049        -1.94153
H          6.06281        16.73693        -2.44677
O          6.03810        15.30647         1.65395
H          6.02671        14.49102         2.19872
O          1.48264        18.83309        -2.57088
H          0.78876        19.27394        -3.10251
O         16.79635        13.22251        -1.83767
H         16.90295        12.41109        -2.39588
O         17.90286        10.76889        -2.50641
H         18.71396        10.99072        -3.01442
O          6.52922        24.79420        -2.39940
H          5.69840        24.42961        -2.79169
O          8.31431        23.66686         1.79544
H          8.57878        22.80804         2.21771
O          2.38219        12.90151         2.01312
H          1.54911        13.34401         2.28031
O         17.39783        16.89763        -1.54785
H         16.58345        17.28999        -1.92703
O         15.11552        27.26800         2.25377
H         14.32777        26.94610         2.74090
O         18.72744        16.59756         1.84652
H         18.46621        15.75966         2.29772
O         15.51775         5.28424         1.81860
H         15.15758         6.00128         2.39534
O         11.39760        24.86494        -1.51235
H         10.55945        24.59114        -1.94319
O         15.74529        27.64706        -1.33179
H         16.47006        28.09598        -1.81476
O          2.19977        18.92038         1.02697
H          1.40151        18.46136         1.36462
O          8.76700         6.22082         2.53543
H          8.73186         5.27540         2.79689
O         12.19300        22.79429         2.32649
H         13.00609        22.38810         2.69826
O         20.04861         5.38206         0.47369
H         19.31157         4.92944         0.93733
O          9.97765        18.17296        -1.46229
H         10.02333        19.03095        -1.93319
O         11.13828         7.71982        -1.33431
H         11.06920         8.66659        -1.62134
O         15.56555         8.36290         2.05882
H         14.92355         8.70580         2.71564
O          2.47033        22.97098         0.96104
H          1.77509        22.39371         1.34156
O          9.72060        21.34862         2.18629
H         10.54470        21.78972         2.51882
O         11.12405        10.54893        -1.40672
H         11.86220        11.12221        -1.70597
O          8.83662        14.80369        -1.57329
H          7.98039        15.09148        -1.98076
O          4.78416         8.28363         2.76135
H          5.22342         9.08740         3.12702
O          9.72718        17.28490         2.06672
H          9.62790        16.41403         2.50458
H          1.27034         2.28850         0.27996
H         -0.89952         3.50843         0.12409
H         -0.96468         5.96866         0.16683
H         -0.94000         7.86610        -0.05775
H         -0.98434        10.28204        -0.13590
H         -1.02962        12.23647        -0.14439
H         -0.98836        14.64653        -0.28268
H         -0.97703        16.57864        -0.23061
H         -1.02107        18.90225        -0.89510
H         -0.87875        20.83582        -1.44685
H         -0.89749        23.28058        -1.45347
H         -0.94475        25.16512        -0.55678
H         -0.90729        27.61899        -0.33261
H          0.32524        29.72418         0.03073
H          3.71991         2.33028         0.44707
H          2.48326        30.93767         0.21785
H          6.15120         2.35123         0.49631
H          4.92731        30.93830         0.13627
H          8.59696         2.33927         0.49285
H          7.37113        30.98122         0.07395
H         11.05403         2.32052         0.14076
H          9.85846        31.01721         0.03230
H         13.49642         2.35873        -0.35138
H         12.33390        31.01924         0.16876
H         15.91246         2.36990        -0.81132
H         14.76099        31.03930         0.50102
H         18.21840         2.43171        -1.63292
H         17.25042        31.05154         0.50405
H         20.36123         3.63513        -1.87584
H         21.62688         5.77187        -1.95187
H         21.58820         8.20858        -2.04736
H         21.77458        10.07317        -1.38969
H         21.82125        12.48963        -1.12011
H         21.57416        14.49596        -1.64990
H         21.58875        16.93274        -1.40545
H         21.85831        18.80067        -0.65375
H         21.84311        21.23990        -0.48377
H         21.95519        23.04305         0.37479
H         21.95599        25.47811         0.44153
H         21.93637        27.40710         0.49801
H         21.85603        29.86644         0.44487
H         19.68115        31.07643         0.38149
