         260
 CSIRO Nanostructure Databank - Neutral Graphene Oxide Data Set
C         30.38565        31.86326         1.33019
C         30.33747        33.08367         1.09450
C         30.35966        36.22613         0.31276
C         30.45689        37.33742        -0.22895
C         30.32958        40.25030        -1.53827
C         30.53172        41.47360        -1.47854
C         32.78797        29.07092         1.65621
C         31.62079        29.60101         1.53671
C         32.76391        31.71764         1.10837
C         31.49346        30.97248         1.36957
C         32.76396        33.06939         0.84927
C         31.49250        33.84233         0.59103
C         32.79874        36.08377         0.12910
C         31.50146        35.28316         0.20852
C         32.81302        37.47601        -0.46622
C         31.47625        38.09934        -0.87465
C         33.33047        40.48310        -1.73454
C         31.31385        39.20406        -1.65670
C         32.87904        41.77606        -1.00786
C         31.59594        42.35471        -1.09159
C         32.59727        44.39901        -0.44301
C         31.57990        43.74504        -0.75434
C         35.70107        27.59986         2.17554
C         35.30263        28.93032         2.04252
C         34.07345        29.52807         1.66212
C         35.32786        31.75308         1.18630
C         34.07293        30.92265         0.92950
C         35.31614        33.09831         0.95375
C         34.03461        33.84802         0.81470
C         35.37781        35.82420        -0.22359
C         34.06870        35.30043         0.38962
C         35.40640        37.37134        -0.44126
C         34.12677        38.05490        -1.02500
C         35.25003        40.38041        -0.16126
C         34.13982        39.59222        -0.78933
C         35.25452        41.86986        -0.24590
C         34.03108        42.51745        -0.49178
C         35.09881        44.74145        -0.29295
C         33.94771        43.96731        -0.32196
C         35.25550        46.07746        -0.69900
C         38.08159        27.21303         1.59091
C         36.77870        26.95221         1.96907
C         38.36950        28.62580         1.78603
C         36.45407        29.81388         2.15456
C         37.89654        31.71622         1.52886
C         36.54378        31.07442         1.62870
C         37.87865        33.19192         1.25201
C         36.52393        33.96427         1.28823
C         37.79928        36.04020         0.71138
C         36.57678        35.25750         0.50297
C         37.76295        37.52908         0.67113
C         36.56636        38.19795         0.05194
C         37.80496        40.48135         0.28557
C         36.51268        39.69541         0.24038
C         37.81688        41.91513        -0.12365
C         36.49554        42.60454         0.05900
C         37.64895        44.79627        -0.71824
C         36.46018        44.13903        -0.10952
C         37.47861        46.00145        -1.39442
C         36.21420        46.67773        -1.23986
C         39.95401        24.51068        -0.20950
C         39.00884        25.07105         0.37250
C         40.10058        27.18551         0.06371
C         39.22942        26.38962         1.09519
C         40.08292        28.69335         0.02222
C         39.16635        29.39661         0.98175
C         40.32046        31.63065         0.60483
C         39.16469        30.88706         1.18801
C         40.27889        33.09836         0.46269
C         38.97856        33.82694         0.40416
C         40.25066        36.01140         0.33274
C         39.10269        35.32923         0.58791
C         40.22867        37.47032        -0.09122
C         39.07714        38.25661         0.49811
C         40.34122        40.37542        -0.25271
C         39.11030        39.73764         0.29038
C         40.21938        41.73918        -0.97067
C         38.96376        42.56061        -0.50241
C         40.28394        44.78689        -0.87286
C         38.93322        44.02328        -0.86339
C         40.38129        46.28070        -0.76872
C         39.43069        47.08185        -1.37969
C         40.32001        49.05022        -0.30401
C         39.53915        48.48894        -1.09902
C         42.47981        24.49455        -1.02210
C         41.19675        25.06032        -0.68809
C         42.56040        27.16116        -0.78057
C         41.28811        26.42835        -0.45816
C         42.58219        28.67270        -0.79663
C         41.30295        29.44346        -0.48626
C         42.77624        31.53725         0.05008
C         41.40318        30.90172        -0.16108
C         42.70126        33.04112        -0.23962
C         41.53894        33.81299         0.30757
C         42.66491        35.96969        -0.62493
C         41.56481        35.31850         0.23591
C         42.73547        37.53998        -0.53241
C         41.55750        38.18843         0.22581
C         42.83157        40.29017        -0.41130
C         41.50113        39.66229        -0.19511
C         42.86186        41.78466        -0.53147
C         41.57840        42.53286        -0.83910
C         42.64177        44.57873         0.28422
C         41.57533        44.01267        -0.62615
C         42.57207        46.05048         0.59366
C         41.57459        46.91228        -0.14802
C         42.51815        48.80880         1.19078
C         41.59458        48.49126         0.09823
C         43.59546        25.02828        -1.12611
C         45.11762        27.12187        -1.02844
C         43.88972        26.39618        -0.52276
C         45.14426        28.68577        -1.03188
C         43.88545        29.37321        -0.73797
C         45.19127        31.57999        -0.95682
C         43.89147        30.83944        -0.72723
C         45.24101        32.95780        -0.28242
C         43.96978        33.78646        -0.49170
C         45.15176        35.94667        -0.06236
C         43.99757        35.27679        -0.34866
C         45.19230        37.39361         0.14244
C         44.01513        38.14485        -0.01120
C         45.25435        40.23546         0.25328
C         44.04448        39.55284         0.04887
C         45.34274        41.73418         0.07895
C         44.02130        42.50347         0.06697
C         44.96700        44.39030         1.43518
C         43.91609        43.80078         0.48528
C         45.02120        45.94193         1.43064
C         43.83398        46.74675         1.08045
C         43.52108        48.13049         1.45114
C         47.51371        27.27016        -0.46278
C         46.45017        26.66339        -0.62436
C         47.69570        28.72186        -0.33399
C         46.43564        29.43072        -0.80421
C         47.72627        31.57246        -0.84342
C         46.45391        30.79790        -0.84298
C         47.74842        33.12577        -0.76110
C         46.42666        33.88434        -0.65387
C         47.72726        35.87935         0.26626
C         46.38353        35.12573         0.29123
C         47.67959        37.36425         0.06978
C         46.41261        38.07677         0.37612
C         47.74282        40.15410         0.62950
C         46.45253        39.49003         0.41721
C         47.65687        41.50273         1.26027
C         46.39387        42.29621         1.02640
C         47.60700        44.46856         1.75106
C         46.37238        43.78597         1.21531
C         47.22906        45.73014         2.41820
C         46.18136        46.35170         2.23564
C         50.36169        28.90797        -0.14385
C         49.00753        29.46397        -0.25150
C         50.14709        31.64875        -1.01201
C         49.01693        30.88959        -0.70833
C         50.20632        33.07487        -0.71363
C         49.02753        33.75987        -0.41147
C         50.36148        35.96164         0.10469
C         49.04214        35.15691         0.10836
C         50.25693        37.37309        -0.54511
C         48.95779        38.14348        -0.16168
C         50.22923        40.14523         0.86460
C         48.94749        39.52591         0.41362
C         50.23567        41.59352         1.24886
C         48.93664        42.20381         1.66438
C         50.17976        44.31538         1.80368
C         48.86364        43.71257         2.00651
C         51.49243        29.40561         0.00221
C         52.86093        31.61143         0.12680
C         52.14631        30.57236        -0.48355
C         52.51795        32.79567        -0.28449
C         51.51288        33.72138        -0.45875
C         52.67857        35.97654        -0.62084
C         51.58822        35.15252        -0.40055
C         52.58375        37.25898        -0.39882
C         51.58020        38.14344        -0.21081
C         52.62718        40.42546         0.43063
C         51.56089        39.43046         0.49295
C         52.58429        41.57351         0.90561
C         51.42778        42.33860         1.26092
C         51.25106        43.69874         1.67088
O         48.86687        42.71770         3.03858
O         45.10809        27.80452        -2.26057
O         41.02697        30.48267        -1.48920
O         39.40180        39.12144         1.61275
O         48.16151        29.25473         0.92299
O         34.06896        34.96597         1.79188
O         37.59650        29.27897         2.76446
O         39.64756        44.32357        -2.08602
O         36.54864        43.52091         1.20490
O         34.05487        39.93053         0.60790
O         42.02648        45.08166         1.53993
O         32.35521        39.69515        -2.44658
O         47.08778        41.39192        -1.57030
O         48.46542        35.40546         1.44357
O         48.03161        37.89541        -1.27148
O         51.29488        31.04443        -1.55988
O         47.25560        44.52485         0.33075
O         42.58020        38.06410        -1.90874
O         32.82912        37.28006         0.97049
O         43.09252        33.37030        -1.58922
O         41.97262        34.68671         1.47492
O         47.77264        32.43732        -2.05024
O         39.95743        41.40845        -2.28640
O         41.98737        43.45508        -1.89984
O         43.14547        40.92663        -1.69225
O         44.31447        31.34668        -2.06041
O         46.57963        41.55461         2.25685
O         39.36191        27.88675        -0.97453
O         38.23088        32.71105         2.56454
O         37.63687        36.89770         1.95793
O         38.45076        46.56179        -2.20497
O         44.93561        46.57313         0.14203
O         31.40098        34.27526        -0.81389
O         50.97319        39.30309         1.81641
O         37.03339        40.19401         1.49685
O         42.26364        47.87832        -1.01253
O         42.48578        27.85135        -2.04204
O         40.30214        31.25043         2.06205
O         45.80938        42.00897        -1.34534
O         36.49755        37.75556        -1.35336
O         39.99031        37.44264        -1.51389
H         40.76352        37.01644        -1.96430
O         36.35907        34.40183         2.65801
H         37.01709        33.91644         3.21337
O         45.35469        32.52486         1.08437
H         45.28660        33.30479         1.68959
O         43.82456        37.78867        -2.62267
H         44.03217        38.67703        -3.00746
O         43.08990        31.30981         1.43808
H         42.32925        31.58812         1.99700
O         44.02862        26.25584         0.88212
H         44.87772        25.80455         1.07838
O         34.23233        40.89515        -2.76402
H         33.70965        41.11503        -3.56349
O         35.40320        35.24119        -1.55602
H         36.12309        35.67961        -2.06183
O         40.07976        26.13686         2.21384
H         39.56779        25.67779         2.91193
O         44.55492        43.98011         2.75119
H         43.61438        44.23703         2.87938
O         34.12851        30.59975        -0.47856
H         33.30832        30.12222        -0.72668
O         38.44185        33.67589        -0.96726
H         39.13785        33.94542        -1.60560
O         50.28200        37.19428        -1.96192
H         49.41376        37.46696        -2.33931
O         50.69974        36.23969         1.47574
H         50.68860        35.40883         1.99359
O         46.13520        34.80339         1.67569
H         47.00605        34.74842         2.14074
O         42.21814        35.67356        -1.96638
H         42.93117        35.93122        -2.59413
O         46.17771        34.43852        -1.95803
H         46.43964        33.76257        -2.62548
O         34.12413        37.77711        -2.42318
H         35.00783        38.00994        -2.78412
O         41.85158        38.05538         1.61981
H         41.09403        38.43851         2.12512
O         48.05268        42.43138        -1.30531
H         47.86063        43.10963        -2.00002
