         314
 CSIRO Nanostructure Databank - Neutral Graphene Oxide Data Set
C         30.35469        57.02386         0.22917
C         30.35335        58.43799         0.21333
C         29.14406        59.18267         0.28150
C         30.37218        61.27579         0.22371
C         29.16716        60.57799         0.28031
C         32.76273        52.70465         0.16003
C         32.75107        54.12018         0.03583
C         31.55542        54.86482         0.15077
C         32.80445        56.98865         0.04197
C         31.56062        56.28501         0.13935
C         32.82724        58.42555         0.08077
C         31.59663        59.14606         0.14375
C         32.84704        61.26182         0.11926
C         31.61116        60.57695         0.16205
C         35.22012        48.50861         1.03285
C         35.19103        49.82912         0.55902
C         33.99776        50.55988         0.40389
C         35.18540        52.67243        -0.12390
C         33.96307        51.96425         0.12421
C         35.18503        54.07303        -0.28698
C         33.98931        54.82001        -0.18975
C         35.23598        56.97069        -0.27699
C         34.02292        56.26426        -0.17341
C         35.34235        58.37753         0.23545
C         34.05145        59.13109         0.07326
C         35.32284        61.24522         0.04110
C         34.07568        60.55871         0.08402
C         37.75739        44.46663         1.77179
C         37.71290        45.86498         2.35665
C         36.49032        46.57063         1.82977
C         37.66120        48.73641         1.55729
C         36.44451        47.88342         1.43442
C         37.74059        49.95823         0.77431
C         36.48799        50.45256         0.19489
C         37.71708        52.67397        -0.02694
C         36.44559        51.92860        -0.21004
C         37.71990        54.13622        -0.32157
C         36.42641        54.77080        -0.68069
C         37.75898        56.99068        -0.65173
C         36.44954        56.29781        -0.68641
C         37.75509        58.44544        -0.57953
C         36.55962        59.12882        -0.25274
C         37.77293        61.26713        -0.30354
C         36.55208        60.55772        -0.16859
C         40.09627        40.27222         0.71733
C         40.10653        41.53247         1.32900
C         38.96373        42.36502         1.34288
C         40.12688        44.38998         2.40688
C         38.91218        43.72386         1.79430
C         40.24250        45.88625         2.05314
C         39.02390        46.60341         2.08209
C         40.27344        48.80478         1.66260
C         39.00252        48.05631         1.96389
C         40.25401        50.03398         0.85257
C         38.98765        50.62648         0.50772
C         40.18268        52.57133        -0.64015
C         38.97458        51.93042        -0.02208
C         40.16588        54.10858        -0.62329
C         38.99736        54.82352        -0.62746
C         40.15388        56.97424        -1.21433
C         38.93619        56.27298        -0.77799
C         40.18770        58.49686        -1.17127
C         38.96142        59.17714        -0.73308
C         40.23496        61.27987        -0.66129
C         38.98906        60.59244        -0.54695
C         42.35146        36.47062        -1.53178
C         42.40219        37.67470        -0.77704
C         41.22723        38.34788        -0.35674
C         42.57639        40.12361         0.63345
C         41.29459        39.55104         0.37702
C         42.73555        41.30326         1.56248
C         41.39955        42.07550         1.83319
C         42.65548        44.28159         1.92487
C         41.37946        43.54699         2.16222
C         42.76059        45.77512         1.97569
C         41.49086        46.54785         1.97724
C         42.76968        48.58466         1.02500
C         41.56560        48.01923         1.77924
C         42.77393        50.09076         0.79523
C         41.48074        50.71822         0.51285
C         42.72701        52.59695        -0.57262
C         41.46910        51.97004        -0.11187
C         42.68880        54.05222        -1.01382
C         41.47680        54.85807        -0.57591
C         42.73810        57.01869        -1.25091
C         41.44783        56.23089        -1.24298
C         42.71432        58.49302        -1.05518
C         41.49243        59.17737        -1.03131
C         42.69681        61.29761        -0.87304
C         41.46339        60.60376        -0.83649
C         44.61630        34.05012        -3.28818
C         43.45124        34.66811        -2.83661
C         44.80910        36.36505        -1.71603
C         43.52391        35.84222        -2.03590
C         44.90343        37.51853        -0.81391
C         43.67289        38.26543        -0.49006
C         45.04594        40.27018         0.05604
C         43.74735        39.51719         0.14586
C         45.07681        41.73762         0.34988
C         43.81190        42.22637         1.00251
C         45.45011        44.69742         0.90678
C         43.60003        43.54832         1.06843
C         45.39418        45.88547         1.58365
C         44.07315        46.54050         1.80733
C         45.34108        48.74362         1.48055
C         44.04052        48.01388         1.61568
C         45.25857        50.17165         1.05099
C         43.97016        50.75568         0.56927
C         45.20662        52.73320        -0.34956
C         44.02571        52.04050        -0.12366
C         45.26714        54.06274        -0.99279
C         43.96767        54.81470        -1.20896
C         45.18560        56.96650        -0.88920
C         43.99676        56.28045        -1.03729
C         45.15796        58.40438        -0.66268
C         43.95347        59.18099        -0.79094
C         45.11467        61.45583        -1.04587
C         43.94103        60.63942        -0.84377
C         45.87410        34.56672        -2.97513
C         47.27693        36.32509        -1.93123
C         45.99752        35.73947        -2.18053
C         47.43517        37.55938        -1.26760
C         46.26206        38.12155        -0.54139
C         47.48493        40.37505        -0.41550
C         46.35964        39.50156         0.11883
C         47.62219        41.72368         0.20657
C         46.41776        42.44362         0.54403
C         47.83734        44.44856         1.17298
C         46.57119        43.81078         0.86255
C         47.89082        45.81794         1.45360
C         46.65695        46.59841         1.61009
C         47.83181        48.65266         0.97296
C         46.61269        47.97525         1.44824
C         47.80121        50.11676         0.68383
C         46.53762        50.90157         0.79590
C         47.78203        52.81404        -0.34644
C         46.50847        52.24240         0.15868
C         47.74450        54.13909        -0.79784
C         46.51223        54.85412        -0.86803
C         47.67125        57.02874        -0.78193
C         46.46846        56.26988        -0.87007
C         47.66274        58.41403        -0.49529
C         46.37734        58.97560        -0.24245
C         47.68002        61.46417        -0.94702
C         46.38139        61.09680        -0.57269
C         48.66013        38.22891        -1.21644
C         49.99852        40.35527        -0.73008
C         48.73604        39.66065        -0.91162
C         50.06955        41.64273        -0.19234
C         48.87917        42.31904         0.29667
C         50.41880        44.28522         1.05855
C         49.04633        43.61311         1.00948
C         50.53541        45.75227         1.39925
C         49.18595        46.54895         1.62167
C         50.16530        48.86985         1.56170
C         49.11976        48.02348         1.36155
C         50.28746        50.27635         1.11295
C         49.04220        50.92413         0.64437
C         50.30470        52.74815        -0.42411
C         49.01742        52.13834        -0.01358
C         50.28438        54.16239        -0.91613
C         48.98542        54.87365        -1.07803
C         50.18880        57.04961        -0.43645
C         48.96330        56.36891        -1.01043
C         50.14101        58.55663        -0.60609
C         48.87137        59.22205        -0.52219
C         50.08390        61.36152        -0.67087
C         48.85312        60.67073        -0.66514
C         51.31951        42.33163        -0.20243
C         52.65515        44.36189        -0.07885
C         51.49276        43.64873         0.25042
C         52.82644        45.73831         0.24550
C         51.80671        46.41526         0.99589
C         53.02187        48.53586         0.63200
C         52.05973        47.76545         1.29616
C         52.79594        49.95831         0.15073
C         51.63213        50.82299         0.66140
C         52.77456        52.78876        -0.34556
C         51.60271        52.15232        -0.02948
C         52.78404        54.18346        -0.87650
C         51.51820        54.96745        -0.84226
C         52.74273        57.10415        -0.95578
C         51.48324        56.33004        -0.80803
C         52.65060        58.61167        -0.82340
C         51.33774        59.27088        -0.64326
C         52.54829        61.40854        -0.39507
C         51.33311        60.70569        -0.57732
C         54.02066        46.42873        -0.08849
C         55.31056        48.59211        -0.20329
C         54.13094        47.83435         0.05586
C         55.33455        50.00830        -0.04720
C         54.09048        50.73631         0.04999
C         55.29114        52.86004        -0.17662
C         54.05970        52.11252        -0.15563
C         55.28778        54.26486        -0.27946
C         54.07043        54.96021        -0.72783
C         55.16431        57.14170        -0.32691
C         54.02521        56.43047        -0.63136
C         55.13376        58.62436        -0.42661
C         53.86546        59.34663        -0.47200
C         54.95083        61.44992         0.24051
C         53.80083        60.74080        -0.23732
C         56.54070        50.74301        -0.04521
C         57.72301        52.91954         0.15243
C         56.54003        52.16160        -0.00716
C         57.68858        54.32946         0.21589
C         56.45352        55.02533        -0.02844
C         57.51537        57.16825         0.55458
C         56.40612        56.45755         0.02902
C         57.37291        58.58833         0.80536
C         56.34292        59.39706         0.13614
C         57.19329        61.44323         1.28336
C         56.14221        60.80079         0.57282
C         58.84761        55.09900         0.49606
C         60.03216        57.16019         1.03316
C         58.78246        56.47486         0.74856
C         60.08876        58.29878         1.82051
C         58.16349        59.26273         1.71697
C         59.48106        61.26442         2.29910
C         58.27403        60.69463         1.79307
C         61.06762        59.32363         1.93757
C         60.73655        60.63244         2.32351
O         44.93957        41.24024        -1.03815
O         41.12934        48.86772         2.86958
O         56.19110        59.17535        -1.28712
O         47.72983        40.37145        -1.81954
O         38.17312        48.77686         2.92410
O         51.21593        50.99775         2.03515
O         42.12909        56.43291        -2.49168
O         50.02558        46.09808         2.71276
O         46.33457        60.14779         0.48783
O         43.05775        44.91156         3.18161
O         45.70553        37.16868         0.41717
O         41.44409        42.53263         3.22203
O         39.96723        57.75716        -2.42552
O         53.61219        54.43491        -2.04405
O         47.72709        49.13100        -0.43676
O         45.27600        49.83238         2.48545
O         37.65630        53.67645         1.07972
O         36.54300        50.88320        -1.21329
O         49.03162        55.70314        -2.29607
O         49.93936        43.48724         2.17408
O         50.35073        53.05380        -1.87200
O         52.77471        57.93743        -2.15597
O         42.56912        53.01113        -2.00629
O         58.93264        58.52203         2.61258
O         44.70609        54.25611        -2.33597
O         46.60603        52.08780         1.64033
O         44.01867        47.47139         2.95542
O         36.34212        55.47369        -1.93142
O         44.31596        44.34764         0.18032
O         51.27859        48.41124         2.25849
O         37.54937        45.75162         3.79882
H         38.34882        45.27391         4.13779
O         40.07238        52.21355        -2.06649
H         40.92341        52.48718        -2.49479
O         52.35674        49.72652        -1.23966
H         53.12771        49.40027        -1.75179
O         39.92035        44.39131         3.84908
H         40.78688        44.57796         4.27265
O         43.17752        40.73696         2.81368
H         42.83054        41.32076         3.53014
O         42.71392        48.01392        -0.32501
H         42.11953        48.56503        -0.87816
O         41.71420        55.16867         0.83970
H         41.37120        54.43229         1.39043
O         35.55443        58.25561         1.70814
H         35.49185        59.16110         2.08193
O         46.67507        39.29849         1.51290
H         46.22057        38.46961         1.79364
O         50.04413        56.82321         1.01260
H         50.53987        57.52093         1.49064
H         29.39806        56.48492         0.29827
H         28.18568        58.64688         0.33582
H         30.37530        62.37510         0.22995
H         28.22070        61.13466         0.32978
H         31.81240        52.17989         0.33888
H         30.59963        54.33498         0.27696
H         32.85519        62.36200         0.11715
H         34.27743        47.95810         1.17062
H         33.04687        50.05712         0.63692
H         35.32819        62.34385         0.08203
H         36.82514        44.02162         1.38978
H         35.56044        45.98110         1.80164
H         37.77056        62.36293        -0.21098
H         39.13731        39.86787         0.35892
H         38.03144        41.94584         0.93187
H         40.24498        62.37497        -0.55655
H         41.37111        36.02729        -1.76073
H         40.24494        37.92132        -0.60712
H         42.68222        62.39730        -0.86974
H         44.54328        33.14144        -3.90220
H         42.46741        34.24683        -3.08666
H         44.98967        62.38778        -1.61658
H         46.78208        34.07070        -3.34616
H         48.15984        35.86510        -2.40008
H         47.83086        62.39761        -1.50968
H         49.56404        37.72844        -1.59621
H         50.93034        39.81974        -0.96451
H         50.06970        62.46049        -0.72056
H         52.16168        41.84980        -0.72191
H         53.44728        43.84911        -0.64394
H         52.51821        62.50359        -0.29665
H         54.84937        45.86640        -0.54167
H         56.24413        48.06675        -0.45198
H         54.83503        62.51376         0.49483
H         57.50010        50.20497        -0.04904
H         58.68291        52.39953         0.28805
H         57.16163        62.53381         1.42228
H         59.81126        54.58097         0.61219
H         60.95026        56.75929         0.57771
H         59.47871        62.35149         2.47579
H         62.11281        59.10525         1.67351
H         61.58989        61.30224         2.51905
