         344
 CSIRO Nanostructure Databank - Neutral Graphene Oxide Data Set
C          1.25175         2.09376        -0.19209
C          1.24383         3.48511        -0.29449
C          2.44023         1.38995        -0.01262
C          2.45495         4.23224        -0.23412
C          1.28424         6.44387        -0.57325
C          1.24192         7.80029        -0.36323
C          2.44916         5.67399        -0.30297
C          2.30243         8.48499         0.46442
C          1.16203        10.70462         0.49578
C          1.16396        12.15834         0.54224
C          2.30591         9.99464         0.36200
C          2.31002        12.86092         0.70406
C          1.11747        15.11396         0.77033
C          1.16226        16.43479         0.49423
C          2.35926        14.32044         1.10095
C          2.42392        17.15168         0.46463
C          2.46193        18.60049         0.33500
C          3.67689         2.08845         0.07167
C          3.66558         3.50366        -0.04361
C          4.90523         1.38667         0.25909
C          4.97949         4.22984        -0.07873
C          3.75558         6.43899        -0.24614
C          3.66139         7.86652         0.26546
C          4.79642         5.61894         0.54795
C          4.82518         8.57582         0.42338
C          3.58155        10.76669         0.08384
C          3.61711        12.10642         0.83479
C          4.86841        10.02057         0.38039
C          4.84380        12.87708         0.37128
C          3.61852        15.00115         0.59304
C          3.60675        16.43437         0.53401
C          4.77852        14.30134         0.28101
C          4.90333        17.17291         0.69426
C          3.61223        19.26111         0.07126
C          4.90086        18.51247        -0.16580
C          6.14729         2.04664         0.48187
C          6.16246         3.49318         0.49920
C          7.35151         1.32937         0.57605
C          7.34842         4.21519         0.60638
C          6.11053         6.36695         0.69872
C          6.11291         7.85533         0.62229
C          7.37388         5.64256         0.48744
C          7.38503         8.53741         0.34600
C          6.05793        10.72450         0.32885
C          6.03712        12.17620         0.17474
C          7.39991        10.03277         0.52689
C          7.26665        12.91477        -0.11692
C          5.94781        15.05581        -0.33962
C          6.10347        16.40770         0.32017
C          7.24357        14.27063        -0.29972
C          7.40623        17.08468         0.58731
C          6.14120        19.25477         0.17814
C          7.36326        18.59637         0.25313
C          8.62353         1.98273         0.84819
C          8.62866         3.54274         0.86530
C          9.90354         1.34992         0.54860
C          9.86835         4.25921         0.51248
C          8.57981         6.35816         0.36608
C          8.55774         7.81541         0.23044
C          9.81927         5.65803         0.31472
C          9.78813         8.49238        -0.16515
C          8.49452        10.68721        -0.25927
C          8.59437        12.16894        -0.09607
C          9.65731         9.89375        -0.63509
C          9.68964        12.86460        -0.89458
C          8.47396        15.06317        -0.68666
C          8.60282        16.42369        -0.03854
C          9.74830        14.28679        -0.61966
C          9.77625        17.10799        -0.12631
C          8.60071        19.25966         0.21514
C          9.83371        18.54751         0.14298
C         11.08068         2.08103         0.41474
C         11.07903         3.53386         0.36890
C         12.32328         1.37568         0.26510
C         12.24673         4.24426        -0.10261
C         11.11560         6.43468         0.32555
C         10.99380         7.82991        -0.25371
C         12.25448         5.61778        -0.23802
C         12.23281         8.52216        -0.58102
C         10.97902        10.63075        -1.00745
C         10.98720        12.12049        -1.12232
C         12.24782         9.93966        -0.75815
C         12.27165        12.83826        -0.93840
C         11.02728        14.96098        -0.28283
C         11.00596        16.43213        -0.69860
C         12.28194        14.23412        -0.72356
C         12.30511        17.10469        -0.32990
C         11.06254        19.20100         0.13076
C         12.30860        18.49432        -0.00845
C         13.50271         2.01733        -0.09833
C         13.42316         3.43616        -0.51599
C         14.75227         1.35598        -0.09713
C         14.74376         4.19323        -0.73089
C         13.41009         6.33346        -0.91275
C         13.44734         7.81599        -0.62626
C         14.69553         5.63145        -0.59489
C         14.68843         8.51599        -0.66813
C         13.46420        10.65373        -0.84334
C         13.48024        12.10301        -0.92766
C         14.69826         9.94359        -0.77379
C         14.72534        12.80178        -0.86912
C         13.49884        14.93697        -0.63822
C         13.50321        16.37303        -0.39434
C         14.73253        14.22718        -0.74358
C         14.74921        17.04196        -0.20857
C         13.53542        19.14679         0.19507
C         14.76233        18.44687         0.08785
C         15.98294         2.04149        -0.22226
C         16.00806         3.46908        -0.47272
C         17.20730         1.37386        -0.01666
C         17.18963         4.17872        -0.42904
C         15.94229         6.35768        -0.17706
C         15.92937         7.82348        -0.55667
C         17.17176         5.65064        -0.77567
C         17.14487         8.51337        -0.68699
C         15.94383        10.63813        -0.89269
C         15.95819        12.08625        -0.92119
C         17.14786         9.91703        -0.91092
C         17.19031        12.79190        -0.91927
C         15.97142        14.92043        -0.61034
C         15.97822        16.32793        -0.32802
C         17.19961        14.21011        -0.72495
C         17.21126        17.00160        -0.13938
C         15.99946        19.10075         0.29224
C         17.21922        18.40323         0.19354
C         18.43137         2.07643         0.07449
C         18.42844         3.52204        -0.10844
C         19.63691         1.39884         0.33059
C         19.59822         4.25917         0.06704
C         18.44094         6.39049        -0.42651
C         18.41861         7.79743        -0.52205
C         19.63416         5.69575        -0.12168
C         19.63420         8.51361        -0.45726
C         18.44523        10.59591        -1.29802
C         18.43706        12.10400        -1.09831
C         19.61769        10.02309        -0.46861
C         19.64077        12.79942        -1.09129
C         18.44154        14.90176        -0.59849
C         18.44578        16.29465        -0.27442
C         19.67723        14.20971        -0.79586
C         19.67707        16.96585        -0.05184
C         18.45669        19.05246         0.42493
C         19.67631        18.35952         0.32343
C         20.86167         2.09072         0.55633
C         20.78980         3.57625         0.60566
C         22.05824         1.41183         0.72422
C         22.07143         4.36439         0.72132
C         20.86657         6.42190        -0.06621
C         20.84586         7.82015        -0.31540
C         22.12195         5.76046         0.22207
C         22.11463         8.53417        -0.55343
C         20.93990        10.65992        -0.84569
C         20.90320        12.04009        -1.46367
C         22.12559        10.00874        -0.68392
C         22.21291        12.79899        -1.28276
C         20.90047        14.91365        -0.63711
C         20.90889        16.26561        -0.20433
C         22.19540        14.25993        -0.91521
C         22.15278        16.92870         0.09228
C         20.90869        19.01062         0.56750
C         22.13654        18.32784         0.47226
C         23.35224         2.08904         0.88451
C         23.35324         3.59650         0.82023
C         24.62659         1.37013         0.64252
C         24.56139         4.26573         0.25564
C         23.34259         6.42470         0.16705
C         23.41263         7.81600        -0.32415
C         24.60529         5.74094         0.31508
C         24.63913         8.60908        -0.12464
C         23.42632        10.68737        -0.77766
C         23.45800        12.03861        -1.02284
C         24.65614         9.95961        -0.41550
C         24.74827        12.81203        -1.16803
C         23.43792        14.89495        -0.42559
C         23.37828        16.22758         0.02540
C         24.68675        14.21327        -0.56365
C         24.63229        16.87205         0.57189
C         23.35129        19.02482         0.66632
C         24.61048        18.38338         0.52800
C         25.82206         2.03519         0.49178
C         25.83273         3.49094         0.18218
C         27.09730         1.37953         0.51137
C         27.08979         4.25607         0.24882
C         25.81588         6.40662         0.28884
C         25.81764         7.90019         0.52362
C         27.06986         5.68223         0.24599
C         27.12684         8.56241         0.19683
C         25.88869        10.72030        -0.30979
C         25.95155        12.05569        -0.64992
C         27.12409        10.06425         0.28238
C         27.19415        12.77859        -0.57462
C         25.89261        14.89601        -0.36093
C         25.90173        16.26966         0.02437
C         27.18895        14.26560        -0.83033
C         27.08361        16.99761         0.04671
C         25.77291        19.11115         0.43489
C         27.08246        18.50389         0.03731
C         28.28824         2.09178         0.43116
C         28.29684         3.54387         0.33665
C         29.55647         1.41110         0.49236
C         29.53237         4.25524         0.33076
C         28.29962         6.39167         0.21166
C         28.30317         7.84606         0.12720
C         29.53363         5.68185         0.23942
C         29.58023         8.53065        -0.03162
C         28.40826        10.68087        -0.20279
C         28.40033        12.10776        -0.42439
C         29.58160         9.95901        -0.25834
C         29.66204        12.82337        -0.37360
C         28.41173        14.94859        -0.26902
C         28.36001        16.31894         0.02095
C         29.63999        14.23937        -0.16967
C         29.53834        17.00893         0.46101
C         28.23942        19.08400         0.79084
C         29.43885        18.38285         0.90852
C         30.73606         2.09940         0.47190
C         30.76265         3.53545         0.39000
C         31.97430         4.24989         0.35942
C         30.78523         6.38344         0.19723
C         30.78410         7.82218         0.05016
C         31.98161         5.63832         0.26099
C         32.03277         8.56838         0.00812
C         30.85649        10.64211        -0.73079
C         30.87726        12.12029        -0.38149
C         32.08124         9.88169        -0.29299
C         32.07086        12.83509        -0.16465
C         30.84773        14.92625         0.15617
C         30.78632        16.33070         0.52194
C         32.05412        14.19389         0.13406
C         31.92064        17.02708         1.00088
C         30.60606        19.01738         1.43429
C         31.82005        18.34888         1.45468
O         22.85917         7.93926        -1.68828
O          8.67135         2.78568         2.09522
O         25.01815         3.75391        -1.04119
O         23.52083         2.95650         2.11017
O          6.13460         7.15960         1.95715
O         21.21464         4.18117         1.88582
O         10.12550        12.52447        -2.24833
O         22.35017        13.80859        -2.35652
O         13.91722         3.66454        -1.86576
O         10.14530        10.02079        -2.02574
O         17.00951         5.75370        -2.21690
H         17.81691         5.40356        -2.64713
O         20.82375        11.79238        -2.91148
H         21.12045        12.62602        -3.34699
O         11.42110         6.66643         1.75982
H         11.33029         5.80238         2.21668
O          3.79135        11.86552         2.26378
H          4.61995        11.35161         2.38288
O         10.89271        16.45299        -2.15955
H         11.02739        17.37794        -2.45650
O          2.46225        14.31459         2.56790
H          2.94713        13.49047         2.81849
O          4.96414        17.63916         2.08341
H          4.46642        16.99906         2.63640
O          7.62781        17.07951         2.03824
H          6.81119        17.46936         2.43809
O         19.34714        10.44714         0.90659
H         19.97047         9.97966         1.50143
O          4.24094         5.40208         1.86026
H          4.68249         6.04523         2.46494
O          9.16038        12.38502         1.26651
H          8.67083        11.77805         1.87972
O          4.17840         6.66009        -1.62252
H          4.44332         5.78799        -2.00627
O         11.06925        14.95074         1.18925
H         10.64689        14.11723         1.50035
O         24.65046        16.52377         2.00519
H         23.84459        16.91365         2.40650
O          1.95480         8.17917         1.86538
H          2.01430         7.20490         1.97330
O          5.33970         4.36963        -1.50398
H          5.39199         3.46356        -1.87658
O         25.60759         8.06629         1.97238
H         25.91026         8.98423         2.19350
O         27.05289        10.38318         1.74210
H         27.92154        10.14053         2.13040
O          8.32000        15.35403        -2.13918
H          9.19202        15.72398        -2.44230
O         16.06396         6.26762         1.27566
H         15.33810         6.79090         1.67633
O         18.62184        10.26766        -2.68974
H         19.41199        10.76079        -3.02947
O         13.21059         6.25258        -2.36844
H         13.35254         5.30521        -2.61497
O          7.70163        10.21960         1.99201
H          7.40965         9.40410         2.45779
O         30.84492        10.58564        -2.19692
H         30.76999         9.64232        -2.45337
O         24.94961        12.99815        -2.61247
H         24.11651        13.41961        -2.94344
O          5.59223        15.25325        -1.74252
H          6.42587        15.47371        -2.22393
O         27.24631        14.46839        -2.28086
H         26.48223        13.96188        -2.66534
O          3.58571        11.09025        -1.33249
H          3.64027        10.25135        -1.83618
O         27.28651        18.88097        -1.38603
H         28.03594        18.34664        -1.72654
O          4.92473        18.06046        -1.54145
H          4.73070        18.82564        -2.12089
H          0.30050         1.54556        -0.24787
H          0.28478         4.00479        -0.42310
H          2.43015         0.29432         0.07427
H          0.38685         5.94556        -0.97394
H          0.32671         8.35817        -0.61051
H          0.19943        10.19217         0.64016
H          0.18714        12.66281         0.53032
H          0.14139        14.61584         0.86012
H          0.23467        17.00036         0.31867
H          1.51541        19.15325         0.43675
H          4.88275         0.28696         0.27434
H          3.61206        20.35775        -0.03109
H          7.35581         0.25704         0.32980
H          6.08309        20.32993         0.41369
H          9.93104         0.26022         0.39822
H          8.61624        20.34654         0.03771
H         12.34233         0.29693         0.48039
H         11.09699        20.28628         0.30716
H         14.77359         0.28374         0.14993
H         13.54631        20.21612         0.45243
H         17.20333         0.28613         0.14805
H         16.00875        20.17292         0.53829
H         19.63153         0.29993         0.38471
H         18.46273        20.11924         0.69325
H         22.05861         0.31402         0.64192
H         20.90771        20.07655         0.83885
H         24.62473         0.27338         0.74219
H         23.31966        20.11698         0.79975
H         27.12982         0.28694         0.63985
H         25.72289        20.21072         0.48276
H         29.55681         0.31329         0.55998
H         28.18988        20.13371         1.11756
H         31.69341         1.55995         0.51906
H         32.92630         3.70161         0.40378
H         32.95244         6.14978         0.22632
H         32.97031         8.04575         0.24341
H         33.06015        10.37927        -0.34113
H         33.04107        12.32155        -0.20119
H         33.00902        14.69758         0.33708
H         32.89560        16.52430         1.05213
H         30.53458        20.05441         1.79183
H         32.71622        18.85490         1.84060
