         720
 CSIRO Nanostructure Databank - Neutral Graphene Oxide Data Set
C         23.69649        26.97037        -1.83483
C         23.57273        28.39237        -1.77946
C         23.32419        31.40043        -1.74695
C         23.30302        32.77441        -1.69422
C         23.30477        35.72438        -1.98731
C         23.37373        37.06313        -2.20000
C         23.27247        40.00307        -2.25955
C         23.27333        41.38661        -2.43206
C         23.27312        44.37193        -2.99469
C         23.36003        45.66524        -3.36219
C         25.92254        24.21823        -0.72068
C         24.91013        24.88668        -1.32332
C         25.53426        27.05403        -0.19661
C         24.67191        26.30331        -1.12923
C         25.46624        28.56790        -0.18473
C         24.43795        29.17982        -1.06172
C         25.53642        31.42738        -0.46595
C         24.30027        30.64449        -0.97201
C         25.56441        32.88257        -0.75423
C         24.37212        33.54437        -1.16281
C         25.50582        35.81431        -0.83138
C         24.20817        35.04991        -0.99322
C         25.50789        37.20217        -0.98582
C         24.41343        37.88101        -1.62888
C         25.61297        40.08555        -1.57156
C         24.41932        39.31016        -1.81081
C         25.62115        41.50708        -1.79250
C         24.41805        42.16374        -2.19247
C         25.68038        44.39225        -2.13880
C         24.38523        43.65025        -2.31111
C         25.85042        45.73748        -2.77371
C         24.64173        46.41862        -3.34988
C         25.83419        48.56984        -3.09846
C         24.69194        47.89035        -3.38120
C         28.18190        22.81433         0.76795
C         28.17445        24.24441         0.55598
C         26.88966        24.89804         0.16877
C         27.97894        27.21623         0.55142
C         26.76854        26.38322         0.33029
C         27.93976        28.58745         0.47583
C         26.72375        29.32258         0.11081
C         28.11055        31.34374        -0.38054
C         26.77200        30.67366        -0.14747
C         28.04418        32.88434        -0.40594
C         26.74373        33.59332        -0.49988
C         27.95241        35.82109         0.00211
C         26.66734        35.05632        -0.31774
C         27.95027        37.30497        -0.20864
C         26.69107        38.01948        -0.62697
C         27.99839        40.14212        -1.03277
C         26.78724        39.42806        -1.12194
C         28.03012        41.52587        -1.31190
C         26.85684        42.23290        -1.63950
C         28.09208        44.41697        -1.64210
C         26.92938        43.66525        -1.83987
C         28.12586        45.87232        -1.79118
C         27.01725        46.54456        -2.36310
C         28.26160        48.66144        -2.36942
C         27.05354        47.92966        -2.62624
C         28.40425        50.03632        -2.76217
C         30.42619        22.91237         1.74733
C         29.25962        22.18541         1.31592
C         30.33889        24.42055         1.80079
C         29.24164        25.00807         0.94550
C         30.53006        27.24104         0.98800
C         29.26523        26.47426         0.69940
C         30.43420        28.69711         1.11472
C         29.10041        29.40141         1.03023
C         30.39977        31.51304         0.77388
C         29.23124        30.80324         0.49012
C         30.47203        32.95838         0.51902
C         29.27806        33.65226        -0.01980
C         30.43931        35.81509         0.11933
C         29.24098        35.12170         0.07260
C         30.54491        37.17340        -0.51914
C         29.20384        37.95115        -0.78876
C         30.55036        40.08125        -0.85004
C         29.21474        39.45980        -0.42122
C         30.47514        41.57032        -0.71508
C         29.35388        42.24062        -1.45995
C         30.43489        44.44391        -0.92996
C         29.31317        43.73846        -1.27437
C         30.43084        45.92079        -0.87107
C         29.27902        46.62458        -1.45620
C         30.63185        48.73828        -1.56949
C         29.38333        48.00908        -1.77195
C         30.73406        50.12546        -1.99079
C         29.57799        50.72059        -2.60637
C         32.83929        20.17597         2.06226
C         31.64721        20.81659         2.22137
C         32.83264        23.01355         2.44825
C         31.56659        22.25600         2.17170
C         32.82056        24.44050         2.00340
C         31.68433        25.11703         1.70120
C         32.82548        27.28606         1.96621
C         31.71911        26.56428         1.56396
C         32.81884        28.73434         1.83459
C         31.57923        29.42662         1.44598
C         32.70002        31.66646         1.86985
C         31.53854        30.84817         1.35468
C         32.88945        32.95475         1.06026
C         31.60174        33.69494         0.78985
C         32.83699        35.84410         0.73949
C         31.66435        35.13288         0.54117
C         32.94663        37.25127         0.29561
C         31.66588        37.98866         0.09474
C         32.98883        40.17494         0.04415
C         31.69702        39.46817        -0.05505
C         33.02795        41.58117        -0.32819
C         31.72807        42.28259        -0.66428
C         32.96711        44.48580        -0.38030
C         31.66667        43.75521        -0.48250
C         33.02844        45.86469        -1.00770
C         31.75092        46.65364        -0.78811
C         33.05760        48.75384        -0.99350
C         31.80498        48.08025        -1.15621
C         32.99332        50.25346        -0.88166
C         31.93157        50.83670        -1.80533
C         33.30646        52.84287        -2.17629
C         32.18087        52.11654        -2.41098
C         35.24550        18.82577         0.96004
C         35.27444        20.20792         1.40238
C         34.06475        20.90511         1.84574
C         35.32588        23.03543         2.08160
C         34.08361        22.28482         2.01122
C         35.33923        24.39898         2.30300
C         34.00832        25.05475         2.68849
C         35.28211        27.35034         2.76105
C         33.90778        26.61663         2.84709
C         35.25851        28.81228         2.40980
C         33.98079        29.47759         2.04399
C         35.22664        31.59570         1.91973
C         34.01508        30.90690         1.90886
C         35.24933        33.07463         2.00226
C         33.96504        33.79506         1.73308
C         35.30683        35.96447         1.40181
C         34.00817        35.26110         1.43569
C         35.25069        37.46726         1.45972
C         34.15905        38.06223         0.60637
C         35.33599        40.27933         0.76792
C         34.12423        39.55263         0.53650
C         35.42147        41.67058         0.43137
C         34.23635        42.37142        -0.01402
C         35.47846        44.47496        -0.38209
C         34.22770        43.72061        -0.28820
C         35.44069        45.95706        -0.37736
C         34.28478        46.63028        -0.64751
C         35.53474        48.78516        -0.73544
C         34.26544        48.08375        -0.74453
C         35.51574        50.22770        -0.96484
C         34.34182        50.92222        -1.01984
C         35.64429        53.10319        -1.24799
C         34.29517        52.42749        -1.11101
C         35.67458        54.50659        -1.26910
C         37.64803        18.80769         0.41669
C         36.35827        18.13104         0.59759
C         37.66012        20.24564         0.87772
C         36.47446        20.87798         1.46380
C         37.88361        22.94485         2.03744
C         36.57501        22.16996         2.26413
C         37.91592        24.42395         2.25921
C         36.61617        25.07132         2.81086
C         37.81545        27.30868         2.07788
C         36.61041        26.59810         2.64454
C         37.66611        28.72034         1.60297
C         36.49053        29.51011         1.96941
C         37.74988        31.61950         1.62510
C         36.49166        30.88845         1.83318
C         37.76608        33.03946         1.54238
C         36.55921        33.82848         1.78310
C         37.75528        35.96907         1.23407
C         36.52783        35.28446         1.43994
C         37.77857        37.42023         0.82156
C         36.54458        38.18658         1.18682
C         37.78257        40.32392         1.48703
C         36.53853        39.55938         1.10009
C         37.85003        41.72401         0.92153
C         36.64977        42.36120         0.49390
C         37.94004        44.55966         0.29635
C         36.73396        43.75036         0.01768
C         37.95051        45.89801         0.02551
C         36.67011        46.70822         0.08117
C         38.02577        48.73122        -0.59833
C         36.74555        48.09880        -0.51016
C         38.08890        50.12489        -1.11337
C         36.81350        50.90689        -1.24517
C         38.09712        53.08508        -1.19939
C         36.85915        52.39450        -1.23667
C         38.10745        54.50477        -1.09776
C         36.87800        55.19052        -1.18705
C         40.08726        15.97832        -0.32297
C         38.93630        16.70381        -0.14843
C         40.16012        18.70951         0.53725
C         38.95658        18.08009         0.29422
C         40.21667        20.07930         1.12946
C         38.96229        20.86363         1.24277
C         40.23973        23.06071         1.11069
C         38.90385        22.36234         1.07295
C         40.23235        24.46575         1.21017
C         39.03799        25.19212         1.63187
C         40.21887        27.32202         1.25266
C         39.02213        26.57099         1.58981
C         40.21942        28.72400         1.26117
C         38.94925        29.47589         1.28562
C         40.27356        31.62513         1.67764
C         38.95651        30.91976         1.46510
C         40.27255        33.05929         1.19292
C         38.96799        33.71630         1.05247
C         40.27914        35.99540         0.66860
C         38.95838        35.23316         0.87325
C         40.27152        37.42418         1.17926
C         39.05799        38.13726         1.16584
C         40.28252        40.21596         1.42234
C         39.06143        39.53321         1.31142
C         40.24113        41.69049         1.49704
C         39.05653        42.41027         0.96684
C         40.32174        44.52823         0.85217
C         39.15053        43.82941         0.67265
C         40.34726        46.04112         0.77642
C         39.28673        46.56634        -0.20621
C         40.46598        48.78391        -0.15722
C         39.23213        48.07629        -0.28930
C         40.53073        50.17408        -0.30787
C         39.46346        50.80099        -1.20074
C         40.59302        53.10826        -0.70211
C         39.38933        52.34532        -1.18207
C         40.51152        54.56986        -0.46388
C         39.33447        55.25496        -0.79107
C         40.46441        57.37621        -0.34525
C         39.33523        56.67989        -0.71324
C         42.56651        15.91873        -0.39371
C         41.37108        16.57192        -0.14093
C         42.57226        18.73218        -0.37879
C         41.47692        17.97737         0.38784
C         42.51381        20.06014        -0.80261
C         41.47927        20.91769         1.20901
C         42.54025        23.03280         0.24616
C         41.40413        22.34399         0.74731
C         42.56827        24.42984         0.44324
C         41.45084        25.14919         0.95837
C         42.62454        27.29402         0.72097
C         41.46390        26.59832         1.02388
C         42.58483        28.74987         0.54511
C         41.40819        29.48665         1.02141
C         42.69450        31.60926         0.98483
C         41.46222        30.87275         1.13394
C         42.72456        33.02353         1.12821
C         41.46966        33.75667         1.09538
C         42.72289        35.87016         1.24112
C         41.52354        35.21016         1.05586
C         42.74256        37.32054         1.68561
C         41.48772        38.10340         1.37750
C         42.78297        40.26131         1.51681
C         41.51608        39.51887         1.44798
C         42.79727        41.63172         1.57156
C         41.54287        42.40917         1.58964
C         42.88805        44.49697         0.95121
C         41.58444        43.78383         1.01815
C         42.86818        45.96425         0.78488
C         41.70631        46.61414         0.48384
C         42.76830        48.79713         0.88360
C         41.79025        48.04116        -0.00570
C         42.87604        50.25443         0.50192
C         41.73452        50.89604         0.00789
C         42.96986        53.11958         0.02788
C         41.64149        52.40038         0.13327
C         42.93421        54.59139         0.16008
C         41.69921        55.27288        -0.08595
C         42.86446        57.40020         0.29215
C         41.67120        56.69551        -0.02899
C         43.79745        16.63205        -0.43205
C         45.02233        18.75864        -1.01293
C         43.81074        18.02377        -0.48226
C         44.91518        20.26939        -0.88628
C         43.70444        20.90177        -0.78278
C         44.87829        23.17227        -0.79711
C         43.54486        22.42901        -0.76790
C         45.01582        24.46735        -0.33651
C         43.87560        25.10994         0.35551
C         45.13164        27.34604         0.19115
C         43.91134        26.59971         0.57701
C         45.12320        28.70630         0.29896
C         43.87994        29.49524         0.40121
C         45.14863        31.60230         0.84539
C         43.92698        30.92757         0.75879
C         45.20255        33.00705         1.07664
C         43.96471        33.72467         1.14371
C         45.22548        35.83143         1.16802
C         43.98680        35.15295         1.23412
C         45.26081        37.31588         1.08174
C         43.99349        38.06848         1.28196
C         45.25746        40.16576         1.68339
C         44.05520        39.52887         1.56551
C         45.30745        41.64592         1.35464
C         44.07693        42.38224         1.87492
C         45.30657        44.50818         1.41006
C         44.11608        43.82594         1.40242
C         45.31758        45.96259         1.27604
C         44.12700        46.67554         0.97352
C         45.24347        48.80709         1.40068
C         44.09712        48.08199         1.01235
C         45.19284        50.25890         1.37848
C         44.09294        50.93966         0.84732
C         45.31324        53.19847         0.98098
C         44.20152        52.38180         0.48724
C         45.30778        54.58044         0.91441
C         44.10178        55.30120         0.49664
C         44.03593        56.72638         0.54944
C         47.45611        19.05353        -0.52941
C         46.33501        18.30761        -0.40723
C         47.45130        20.36752        -1.15649
C         46.12499        20.99780        -1.31500
C         47.33900        23.23161        -1.45258
C         46.04564        22.53225        -1.41789
C         47.41456        24.53236        -1.01368
C         46.24518        25.21317        -0.50519
C         47.51826        27.34547        -0.47900
C         46.32357        26.61090        -0.22986
C         47.63536        28.77312        -0.00007
C         46.30586        29.54035        -0.05040
C         47.70067        31.51804         0.65102
C         46.39710        30.75031         0.89345
C         47.72242        32.98244         0.91989
C         46.44875        33.72156         1.10325
C         47.73660        35.89192         0.74025
C         46.45045        35.12448         1.07303
C         47.72285        37.33608         1.23545
C         46.55618        38.01265         1.33041
C         47.78715        40.18519         1.84167
C         46.51126        39.37331         2.02579
C         47.72484        41.63525         2.30948
C         46.56457        42.40480         1.72916
C         47.78654        44.53669         1.80492
C         46.54918        43.77717         1.69725
C         47.75186        45.95647         1.76151
C         46.49261        46.68633         1.61222
C         47.62952        48.81806         2.22647
C         46.43416        48.09823         1.73181
C         47.64940        50.35104         2.36096
C         46.32618        51.02885         1.94854
C         47.69651        53.20605         1.82793
C         46.39453        52.50532         1.70677
C         47.61662        54.64918         1.80389
C         46.48480        55.29041         1.39446
C         49.90199        20.44039        -1.51251
C         48.60814        21.05372        -1.50288
C         49.81067        23.22517        -2.12845
C         48.48730        22.44727        -2.09302
C         49.85127        24.66654        -1.73285
C         48.76069        25.20964        -0.83685
C         49.87898        27.43423        -1.22658
C         48.70165        26.72162        -0.92336
C         49.80163        28.90949        -1.38374
C         48.62286        29.60277        -0.79521
C         50.01869        31.71165        -0.39793
C         48.63201        31.10767        -0.50834
C         50.07846        33.08750         0.12286
C         48.96629        33.73075         0.59173
C         50.26690        35.88708         0.98025
C         48.97579        35.10854         1.23020
C         50.27249        37.36370         1.24034
C         48.99057        38.01708         1.75995
C         50.19757        40.26477         1.33086
C         48.97206        39.53404         1.57699
C         50.22260        41.68728         1.51131
C         49.10722        42.38447         2.28919
C         50.22863        44.56691         1.75152
C         49.02282        43.85557         1.89364
C         50.20601        45.97820         1.68497
C         48.97130        46.66319         1.77389
C         50.18880        48.89515         1.88472
C         48.95045        48.10362         2.10454
C         50.13569        50.25856         1.72579
C         48.80959        50.98496         1.55690
C         50.14567        53.10301         2.12833
C         48.86770        52.48062         1.87291
C         51.05904        21.10090        -1.85323
C         52.30616        23.23342        -2.18626
C         51.10714        22.50947        -2.11749
C         52.32760        24.68829        -2.08345
C         51.14574        25.37607        -1.67949
C         52.33677        27.54588        -1.66751
C         51.11442        26.77207        -1.52001
C         52.30674        28.93387        -1.62368
C         51.02196        29.74234        -1.76127
C         52.31411        31.88756        -1.24390
C         51.08294        31.09528        -1.00054
C         52.46908        33.18865        -0.62671
C         51.42882        33.75453         0.28769
C         52.40476        36.05009        -0.24896
C         51.36588        35.27833         0.18968
C         52.32202        37.54109        -0.24517
C         51.30868        38.19234         0.59221
C         52.57723        40.30406         0.51017
C         51.35177        39.57241         0.80313
C         52.65286        41.67376         1.07551
C         51.41506        42.39769         1.38368
C         52.75758        44.57410         1.34155
C         51.54919        43.82839         1.90343
C         52.68492        46.03613         1.23321
C         51.43570        46.74376         1.52870
C         52.57233        48.92594         1.21353
C         51.40472        48.12942         1.63046
C         52.65146        50.34124         1.75326
C         51.36253        51.07696         1.33613
C         51.31350        52.45809         1.93404
C         54.73750        23.24233        -2.47855
C         53.60165        22.56764        -2.20670
C         54.68670        24.68959        -2.90348
C         53.52756        25.41343        -2.24026
C         54.79367        27.51387        -2.06962
C         53.57977        26.81967        -1.95332
C         54.88958        28.92099        -1.70663
C         53.56796        29.66780        -1.50375
C         54.93429        31.83400        -1.62133
C         53.59504        31.14744        -1.66853
C         54.95358        33.28737        -1.25996
C         53.73186        33.89526        -0.66450
C         54.86320        36.16387        -1.14236
C         53.71625        35.41121        -0.53705
C         54.79596        37.68052        -1.16575
C         53.54234        38.38017        -0.68831
C         54.89310        40.58280        -0.51497
C         53.66091        39.73646        -0.12482
C         55.21311        41.59521         0.68151
C         53.97159        42.40155         1.11971
C         55.12110        44.60375         0.58275
C         53.93218        43.89787         1.05689
C         55.16954        46.10450         0.77430
C         53.80951        46.74849         0.86652
C         55.06961        48.96446         0.64981
C         53.78861        48.21315         0.71203
C         55.02349        50.39145         0.91706
C         53.91914        51.04100         1.34274
C         57.16038        24.88569        -3.60924
C         56.03298        25.38688        -2.80144
C         57.15560        27.70699        -3.01188
C         56.05719        26.83872        -2.42442
C         57.33793        29.02212        -2.29899
C         56.15100        29.69007        -1.90434
C         57.49785        31.66494        -1.19173
C         56.17858        31.05256        -1.61172
C         57.49802        33.21211        -1.13459
C         56.23825        33.99852        -0.97511
C         57.32730        36.16980        -1.47107
C         56.19133        35.47582        -1.19664
C         57.28963        37.65274        -1.59952
C         56.08776        38.40997        -1.14569
C         57.45650        40.40471        -0.77465
C         56.16767        39.73671        -0.77808
C         57.55776        41.82299        -0.36370
C         56.40277        42.48448         0.30602
C         57.27641        44.64209        -0.74756
C         56.24748        43.95636         0.15259
C         57.30964        46.16823        -0.63833
C         56.00854        46.87252        -0.26154
C         57.50635        48.93127         0.27412
C         56.20339        48.30350         0.23953
C         58.32299        25.60475        -3.72603
C         59.63614        27.67564        -3.30461
C         58.43032        26.95664        -3.27955
C         59.71316        29.01113        -2.91560
C         58.58729        29.71842        -2.37804
C         59.90379        31.80694        -1.89942
C         58.68517        31.06374        -1.91881
C         59.95124        33.16109        -1.68650
C         58.69336        33.94446        -1.66642
C         59.86637        36.23376        -1.66365
C         58.61439        35.45351        -1.77444
C         59.86807        37.56812        -1.52010
C         58.62683        38.37408        -1.61219
C         59.87003        40.52262        -1.23955
C         58.63616        39.78258        -1.16308
C         59.90815        41.88471        -1.12796
C         58.71867        42.62637        -0.82768
C         59.86858        44.79434        -0.69646
C         58.66280        44.00393        -0.71753
C         59.87114        46.14379        -0.58469
C         58.61205        46.90785        -0.59635
C         58.64088        48.28962        -0.08248
O         33.77939        24.49137         4.06188
O         54.55514        36.88340        -2.36740
O         38.73942        34.32474        -0.29156
O         52.78946        48.78350        -0.23686
O         37.42903        50.27696        -2.43213
O         53.45327        41.82163         2.33841
O         33.04082        23.21164         3.91887
O         33.99648        37.46216        -0.71564
O         31.00283        36.58148        -1.71991
O         33.57172        34.70936         2.77055
O         48.19770        31.96687         1.93900
O         43.90006        52.60337        -0.95415
O         57.55363        42.08281         1.14214
O         40.42146        52.83568        -2.11269
O         50.83980        36.42590         2.22883
O         49.16225        24.94243         0.48803
O         37.62155        27.18604         3.52851
O         54.92739        32.91948        -2.65795
O         52.41219        38.16610        -1.57361
O         28.98007        33.33497        -1.46928
O         54.56872        41.30750        -1.62692
O         35.34790        28.35648         3.81786
O         49.62442        24.29378        -3.13945
O         58.47355        34.60339        -2.96867
O         30.20522        26.79433        -0.40748
O         35.99579        33.57999         3.13961
O         57.87461        38.14822        -2.84815
O         57.84326        46.75590        -1.87587
O         30.96365        46.44332         0.40860
O         31.33988        38.82264         1.22757
O         43.03460        29.22451        -0.79378
O         24.71607        44.33595        -1.03173
O         36.36929        43.90789        -1.42021
O         57.03877        33.64685         0.20042
O         32.65708        41.81419        -1.76394
O         54.35001        29.21874        -0.35654
O         49.62646        42.33244         3.61525
O         25.64077        45.75926        -4.22541
O         48.62444        29.28820        -2.20902
O         48.26190        48.23259         3.41659
O         27.05243        35.40746         1.07523
O         24.42667        31.10572         0.41778
O         44.21810        25.66360         1.67513
O         40.72024        42.25618         2.79564
O         56.44912        25.81405        -1.45890
O         42.47315        20.54853         1.82530
O         37.55708        19.93538        -0.56036
O         38.47298        23.47053         3.24426
O         45.86437        51.95864         2.98969
O         38.05068        28.95316         0.21514
O         54.11621        34.58288         0.60735
O         32.15123        44.25804         0.81349
O         45.80332        21.67831        -2.58423
O         52.74589        31.72531        -2.66074
O         42.33710        43.79822        -0.25704
O         44.47329        37.80343        -0.08040
O         24.85760        27.77608         0.88144
O         39.53970        20.29079         2.44595
O         27.14382        37.97545         0.79522
O         26.35766        25.48294         1.42657
O         45.07974        18.46959        -2.44426
H         45.79059        19.02200        -2.83550
O         46.08444        30.00743        -1.40868
H         45.14525        29.85591        -1.65200
O         47.84805        35.92635        -0.70440
H         47.04562        36.35668        -1.06929
O         39.96945        50.42666        -2.50967
H         39.25600        50.62286        -3.15811
O         55.57432        40.74343         1.76364
H         56.51221        40.95460         2.00269
O         45.21345        41.70394        -0.10113
H         45.91778        41.14357        -0.48752
O         29.09555        39.71314         0.98544
H         28.27064        39.27512         1.30855
O         57.69369        31.20404         0.18553
H         57.29583        31.88604         0.77785
O         28.97713        37.88488        -2.20928
H         29.76445        37.37818        -2.57001
O         46.39403        39.03087         3.43270
H         47.27588        38.68567         3.71827
O         32.51413        50.50514         0.48379
H         32.71614        51.45309         0.67989
O         48.13700        22.22818        -3.48537
H         48.30161        23.07903        -3.95194
O         42.01951        17.84006         1.74118
H         42.26668        18.74134         2.06819
O         42.81516        37.25278         3.14559
H         41.95893        36.92125         3.48802
O         51.81505        43.73575         3.32592
H         51.05024        43.20148         3.71068
O         36.53559        21.78491         3.65619
H         36.75775        22.59050         4.18087
O         42.88065        22.72468        -2.05590
H         43.52230        22.48724        -2.76440
O         29.69426        42.08385        -2.88574
H         29.87136        41.11818        -3.03187
O         30.81925        39.76560        -2.24731
H         31.67016        40.21735        -2.47153
O         52.62546        50.27999         3.20097
H         53.48391        49.92888         3.51584
O         51.33395        51.21468        -0.11216
H         51.75862        50.41461        -0.50419
O         37.75089        37.37796        -0.65094
H         38.62050        37.00682        -0.94815
O         50.90037        30.04949        -3.16536
H         49.94332        30.20806        -3.33907
O         33.74210        52.89850         0.17490
H         33.60900        53.86781         0.10737
O         38.40014        22.62481        -0.27156
H         38.26314        21.77581        -0.75202
O         32.36403        32.05931         3.22693
H         32.51089        31.29387         3.82104
O         28.45776        30.90097        -1.73072
H         29.03133        31.61143        -2.11261
O         51.81892        33.48225         1.67745
H         52.71202        33.88571         1.80156
O         33.38682        26.87756         4.15903
H         34.07327        26.65346         4.82195
O         48.16993        28.71992         1.33709
H         47.63815        28.09267         1.87101
O         56.62131        28.06326        -4.34349
H         57.28527        28.62864        -4.79290
O         55.20604        46.92832        -1.45653
H         55.79833        47.20403        -2.19025
O         47.88305        50.68639         3.73404
H         48.21946        49.87436         4.18281
O         40.45554        31.69492         3.14093
H         41.32895        32.10801         3.31210
O         47.34667        41.48262         3.70047
H         48.18557        41.69280         4.20652
O         56.77175        44.34810        -2.08365
H         57.16618        45.01789        -2.68722
O         40.38768        36.18244        -0.78244
H         40.11518        35.32556        -1.19144
O         48.81131        34.93740         2.65221
H         49.54344        34.36591         2.97108
O         42.16024        48.77000         2.22486
H         42.81864        49.11837         2.86396
O         48.07541        31.78027        -1.66904
H         47.36703        31.19847        -2.03879
O         48.49172        50.85275         0.14467
H         49.30046        51.12897        -0.35147
O         33.42306        32.55716        -0.23148
H         33.18232        33.23408        -0.89936
O         33.06941        45.64416        -2.44898
H         33.90145        45.17319        -2.67048
O         37.63141        40.49770         2.93897
H         38.36627        41.06957         3.25161
O         29.91776        24.76089         3.17068
H         29.03531        24.35874         3.32089
O         39.75044        46.13522        -1.52406
H         39.04896        46.33388        -2.17991
O         41.16357        52.62409         1.50302
H         41.77474        52.17217         2.12305
O         46.39041        30.23145         2.24438
H         47.03732        30.77676         2.75543
O         40.03696        46.52939         2.11447
H         40.61104        47.30803         2.30716
O         41.34371        20.60876        -1.24002
H         41.54832        21.49059        -1.64745
O         28.70525        29.58101         2.45444
H         29.37459        30.15994         2.87995
O         23.53064        35.18111         0.31444
H         24.17939        34.94360         1.01219
O         48.94461        37.83176         3.20111
H         49.23639        36.90169         3.37313
O         36.46897        46.90694         1.53016
H         35.67561        47.47277         1.64759
O         54.39272        24.69731        -4.33776
H         53.52359        24.26211        -4.47069
O         36.59066        24.83551         4.23661
H         37.27684        25.41655         4.63594
O         42.34898        47.98477        -1.33802
H         41.74381        47.44284        -1.89005
O         34.87121        37.79882         2.83313
H         35.40579        37.25435         3.44857
O         55.83343        46.30274         2.06176
H         55.35993        45.76540         2.73267
O         44.15322        42.42168         3.32253
H         43.26651        42.63142         3.68362
H         23.02342        26.40831        -2.49796
H         22.77347        28.85932        -2.37221
H         22.55947        30.86565        -2.32697
H         22.45570        33.29166        -2.16424
H         22.50862        35.15092        -2.48120
H         22.64722        37.52857        -2.88137
H         22.33651        39.45697        -2.43901
H         22.33976        41.87357        -2.74592
H         22.31000        43.85138        -3.10539
H         22.47520        46.17473        -3.77442
H         26.07341        23.15146        -0.93997
H         24.23359        24.34982        -2.00523
H         25.81257        49.66708        -3.16018
H         23.77292        48.44153        -3.63098
H         27.30488        22.22753         0.46398
H         27.55357        50.55251        -3.22742
H         29.24504        21.09105         1.40900
H         29.62389        51.76915        -2.93160
H         32.86424        19.07870         2.08702
H         30.73014        20.22355         2.34108
H         33.46582        53.79219        -2.70926
H         31.45673        52.49958        -3.14626
H         34.29346        18.28056         1.02354
H         34.73247        55.07407        -1.30779
H         36.28679        17.04610         0.43589
H         36.84880        56.28660        -1.15497
H         40.02863        14.92828        -0.64661
H         37.96601        16.22659        -0.34049
H         40.44558        58.47499        -0.30889
H         38.43251        57.24954        -0.96930
H         42.56366        14.85405        -0.67182
H         42.84132        58.49898         0.32826
H         44.72254        16.07552        -0.63924
H         44.93400        57.30789         0.79510
H         48.40837        18.66496        -0.13960
H         46.38730        17.31936         0.07265
H         48.50253        55.24336         2.07076
H         46.48820        56.38827         1.37580
H         49.97522        19.37390        -1.25563
H         50.15525        54.12933         2.52491
H         51.99646        20.52858        -1.83836
H         52.25958        52.96389         2.17325
H         55.70520        22.72028        -2.49845
H         53.65488        21.49181        -1.98963
H         55.92337        50.98523         0.70081
H         53.96908        52.13057         1.48480
H         57.07522        23.89218        -4.07271
H         57.57916        49.95824         0.65933
H         59.19804        25.14550        -4.21167
H         60.55451        27.16040        -3.62424
H         60.68689        29.51566        -2.97648
H         60.85223        31.28006        -2.08352
H         60.91858        33.68071        -1.72853
H         60.81944        35.68636        -1.64752
H         60.82558        38.08511        -1.36677
H         60.78879        39.99526        -1.52759
H         60.84750        42.41209        -1.34177
H         60.83177        44.26472        -0.69077
H         60.81697        46.69705        -0.49523
H         59.61704        48.78754         0.00964
