         429
 CSIRO Nanostructure Databank - Neutral Graphene Oxide Data Set
C          1.53779         3.37443         1.27692
C          0.34677         4.04108         1.53259
C          1.30818         6.15224         0.75185
C          0.23435         5.41480         1.29576
C          1.25075         7.61657         0.64425
C          0.06219         8.31783         0.95226
C          1.19241        10.46815         0.74359
C          0.03003         9.70074         0.97576
C          1.16953        11.91934         0.80562
C         -0.01003        12.61102         1.15920
C          1.12159        14.74617         0.97678
C         -0.03068        13.99305         1.25769
C          1.07434        16.24171         1.19698
C         -0.11176        16.93461         0.57725
C          1.07523        19.07614         0.66480
C         -0.09280        18.29348         0.41419
C          1.06983        20.55145         0.32298
C         -0.18535        21.32262         0.69045
C          1.09982        23.41984         0.55239
C         -0.14723        22.66800         0.76601
C          1.08049        24.82392         0.14740
C         -0.07170        25.56860         0.00002
C          1.10338        27.67772        -0.50671
C         -0.06076        26.96028        -0.32287
C          1.14792        29.12453        -0.70094
C          0.00615        29.85402        -1.04881
C          1.20340        31.98505        -1.13233
C          0.07525        31.23641        -1.37283
C          1.37674        33.39734        -1.68081
C          0.10083        34.20519        -1.78509
C          1.40855        36.27346        -1.93794
C          0.14841        35.54991        -1.92153
C          1.49317        37.60227        -2.41520
C          3.88008         3.40086         0.51319
C          2.64170         4.07375         0.72763
C          3.60097         6.17112        -0.24059
C          2.49960         5.46227         0.42806
C          3.60081         7.69962        -0.20433
C          2.40739         8.37174         0.34434
C          3.62213        10.53532         0.21938
C          2.40310         9.79092         0.43081
C          3.60327        11.96297         0.26731
C          2.35144        12.66123         0.53164
C          3.50529        14.87414         0.28109
C          2.30274        14.08124         0.61364
C          3.55616        16.30894         0.64094
C          2.34934        16.97256         0.86218
C          3.56713        19.09160         0.91120
C          2.32026        18.39886         0.85377
C          3.52347        20.53396         1.19347
C          2.25082        21.27689         0.93478
C          3.63067        23.34060         0.36982
C          2.28714        22.74579         0.70034
C          3.63240        24.84335         0.25049
C          2.36988        25.45330        -0.20618
C          3.65560        27.67535        -0.38587
C          2.38314        26.94890        -0.52980
C          3.63440        29.12366        -0.44930
C          2.39796        29.81209        -0.57229
C          3.66759        32.04950        -0.32325
C          2.36243        31.29152        -0.52779
C          3.73417        33.47407        -0.76064
C          2.42690        34.21813        -0.91393
C          3.82570        36.24096        -1.63095
C          2.59379        35.59733        -1.54176
C          3.91634        37.60328        -2.08656
C          2.71121        38.25394        -2.49087
C          6.26970         3.42853        -0.03047
C          5.02330         4.05664         0.02724
C          6.17452         6.28062        -0.58395
C          4.90550         5.45988        -0.44126
C          6.11490         7.74758        -0.37254
C          4.88966         8.42232        -0.20310
C          6.08367        10.56722         0.00989
C          4.85931         9.84037         0.01319
C          6.06690        12.00106         0.06556
C          4.81583        12.68027         0.12749
C          6.05135        14.92398         0.20611
C          4.80180        14.15656         0.04300
C          6.04117        16.29290         0.43115
C          4.79553        17.01122         0.61659
C          6.06278        19.16100         0.90788
C          4.79964        18.42006         0.83875
C          6.09393        20.54210         1.12830
C          4.82205        21.27784         1.34216
C          6.10843        23.49287         1.04894
C          4.80370        22.75858         1.14450
C          6.09579        24.93615         0.63522
C          4.80730        25.55681         0.20579
C          6.13214        27.58728        -0.42017
C          4.82685        26.95153        -0.16807
C          6.12731        29.10310        -0.58043
C          4.86637        29.84027        -0.40964
C          6.15037        31.92592        -0.41203
C          4.91917        31.25667        -0.35356
C          6.16784        33.40734        -0.43867
C          4.92929        34.09883        -0.87563
C          6.27625        36.25535        -0.99274
C          5.10341        35.44904        -1.53282
C          6.32805        37.76237        -1.43046
C          5.15995        38.26815        -2.13999
C          8.67006         3.44312        -0.44857
C          7.47943         4.13216        -0.34736
C          8.66108         6.30411        -0.48982
C          7.47050         5.58492        -0.44857
C          8.60918         7.75957        -0.38562
C          7.34911         8.45029        -0.26597
C          8.54043        10.60602         0.04306
C          7.32898         9.87292        -0.07886
C          8.52150        12.03900         0.10550
C          7.29106        12.72782         0.04741
C          8.55733        14.92009         0.24989
C          7.30908        14.21723        -0.20636
C          8.53461        16.31583         0.44015
C          7.29309        17.03449         0.51583
C          8.54599        19.13618         0.85426
C          7.29652        18.42850         0.73579
C          8.55295        20.57119         0.93505
C          7.33182        21.28918         1.01711
C          8.56925        23.43313         0.74891
C          7.35961        22.71973         0.94377
C          8.59324        24.86815         0.50902
C          7.38915        25.57334         0.30678
C          8.63178        27.64351        -0.12672
C          7.40623        26.93275        -0.06348
C          8.63115        29.06604        -0.36287
C          7.41044        29.79212        -0.43332
C          8.61700        31.88076        -0.66783
C          7.38829        31.20816        -0.42809
C          8.73839        33.34307        -0.41671
C          7.47187        34.14004        -0.46612
C          8.76924        36.27066        -0.77232
C          7.55671        35.57214        -0.83424
C          8.80576        37.69818        -1.09026
C          7.64915        38.35681        -1.52887
C         11.14098         3.37555        -0.20882
C          9.95358         4.09192        -0.87975
C         11.08985         6.38109        -0.69324
C          9.93164         5.61687        -0.65227
C         11.06801         7.79767        -0.38368
C          9.80239         8.49162        -0.30134
C         10.99152        10.58577         0.24634
C          9.79611         9.90926        -0.01292
C         10.97922        12.02406         0.51604
C          9.74762        12.77299         0.26244
C         11.02406        14.91391         0.42168
C          9.77013        14.18837         0.34281
C         11.01448        16.32517         0.50710
C          9.77553        17.02659         0.61917
C         11.04019        19.11789         1.21664
C          9.76206        18.42048         0.83579
C         11.02467        20.58856         0.88602
C          9.80112        21.29042         0.86786
C         11.03924        23.43541         0.74779
C          9.79986        22.71750         0.75180
C         11.05336        24.87614         0.62811
C          9.84516        25.57529         0.40865
C         11.11705        27.72636         0.11172
C          9.87461        26.99015         0.12262
C         11.16922        29.13235        -0.25182
C          9.87238        29.74158        -0.55769
C         11.59636        32.21170        -0.90802
C          9.71175        31.08213        -0.99240
C         11.36155        33.45770        -0.45171
C         10.02369        34.11027        -0.35764
C         11.21435        36.29975        -0.35310
C         10.00635        35.59224        -0.49740
C         11.24028        37.72664        -0.62335
C         10.05663        38.37261        -1.02980
C         13.74424         3.16487        -0.31866
C         12.39971         3.62120        -0.64260
C         13.55350         6.30572        -0.36695
C         12.41056         5.81361        -0.92732
C         13.51094         7.71243         0.06161
C         12.25859         8.45979        -0.14905
C         13.58111        10.60609         0.16453
C         12.27474         9.95139        -0.19061
C         13.66890        12.08459         0.46845
C         12.32250        12.80014         0.53073
C         13.46214        14.96776         0.01566
C         12.26855        14.23715         0.27982
C         13.49376        16.35120         0.17558
C         12.26947        17.05478         0.50269
C         13.59948        19.11897         0.99035
C         12.28886        18.41487         0.75069
C         13.50649        20.60519         0.78357
C         12.25654        21.29103         0.83997
C         13.48380        23.42808         1.27561
C         12.24142        22.71688         0.84784
C         13.47279        24.89607         0.96656
C         12.29924        25.60072         0.71370
C         13.52947        27.77031         0.60132
C         12.31971        27.04613         0.48912
C         13.60023        29.16102         0.27285
C         12.41223        29.84572        -0.16010
C         13.75247        32.00282         0.23693
C         12.73633        31.29484        -0.62859
C         13.65727        33.43641         0.61297
C         12.41393        34.18613         0.29089
C         13.64150        36.34575         0.14770
C         12.42871        35.65226         0.06299
C         13.66675        37.76704        -0.14748
C         12.46839        38.42075        -0.50477
C         16.14267         3.42587        -0.49742
C         14.84026         4.01192        -0.37394
C         16.06697         6.28132        -0.34484
C         14.79989         5.50076        -0.00610
C         16.16523         7.76166         0.02415
C         14.81522         8.47472         0.10939
C         15.76406        10.64025        -0.95018
C         14.74992         9.93757        -0.07500
C         15.88568        12.12525        -0.67264
C         14.75276        12.79446        -0.31067
C         15.97587        14.95754        -0.22174
C         14.66438        14.27452        -0.58183
C         15.91989        16.45448        -0.43572
C         14.73500        17.10474        -0.00093
C         16.00471        19.19655         0.16366
C         14.78279        18.48069         0.28846
C         15.96487        20.59494         0.58280
C         14.72612        21.32417         0.70101
C         15.98261        23.45639         0.93258
C         14.75848        22.72874         0.88825
C         15.98266        24.85074         1.16675
C         14.72248        25.57893         1.28282
C         16.03580        27.78662         1.04289
C         14.74168        27.11595         1.11702
C         16.06099        29.15046         0.82705
C         14.86441        29.85179         0.46211
C         16.17267        32.03016         0.56345
C         14.89256        31.29171         0.50170
C         16.19459        33.50318         0.65425
C         14.90956        34.23800         0.97603
C         16.07855        36.36024         0.37823
C         14.88478        35.66582         0.43365
C         16.10168        37.80240         0.22996
C         14.89066        38.46916        -0.04526
C         18.55964         3.53177        -0.91250
C         17.28974         4.17609        -0.69271
C         18.46141         6.38501        -0.93416
C         17.24146         5.63454        -0.65894
C         18.40905         7.82248        -1.07131
C         17.19955         8.48314        -0.81338
C         18.33645        10.68092        -1.50960
C         17.05152         9.87485        -1.20221
C         18.29865        12.15362        -1.38365
C         17.10294        12.85510        -1.03743
C         18.26727        15.00117        -1.29776
C         17.14226        14.24846        -0.86525
C         18.16882        16.43268        -1.44241
C         17.06305        17.19033        -0.81290
C         18.34430        19.39091        -0.80858
C         17.13948        18.58442        -0.48604
C         18.77084        20.45381         0.01985
C         17.11795        21.30764         0.93328
C         18.50614        23.36530         0.85711
C         17.22659        22.71980         0.90111
C         18.53684        24.85626         0.97627
C         17.24720        25.60814         1.11638
C         18.56390        27.75854         1.25549
C         17.25758        27.05992         1.58996
C         18.58924        29.13348         1.25329
C         17.28368        29.88911         1.36344
C         18.67620        32.01945         1.02594
C         17.43167        31.27594         0.79447
C         18.72086        33.45842         0.54108
C         17.37617        34.16842         0.63135
C         18.61985        36.42690         0.70433
C         17.37016        35.64100         0.45175
C         18.51273        37.90295         0.83554
C         17.29795        38.52544         0.47831
C         19.69384         4.25854        -1.12323
C         20.84693         6.43913        -1.47413
C         19.66096         5.70061        -1.16482
C         20.82493         7.80601        -1.58005
C         19.61657         8.55541        -1.40262
C         20.79568        10.77468        -1.53554
C         19.61800         9.97416        -1.44317
C         20.73208        12.14097        -1.69183
C         19.49476        12.86502        -1.59719
C         20.45224        15.01354        -2.42012
C         19.43343        14.30087        -1.74095
C         20.23212        16.32768        -2.79011
C         19.08144        17.00611        -2.33280
C         20.07884        20.22008        -2.37198
C         19.08803        19.29152        -2.00905
C         20.34300        21.33354        -1.57833
C         19.65706        21.48816        -0.35618
C         20.91065        23.53337         0.35002
C         19.68027        22.76271         0.36873
C         21.01804        24.78177         0.85812
C         19.83240        25.52583         1.42562
C         21.02655        27.76165         1.58059
C         19.85674        27.00882         0.99962
C         21.01251        29.11922         1.65824
C         19.82582        29.87842         1.36752
C         21.08145        32.09315         1.44815
C         19.84575        31.31953         1.30118
C         21.08417        33.44404         1.44624
C         19.82369        34.21660         1.28016
C         20.96448        36.56586         1.60769
C         19.78390        35.72321         1.34362
C         20.87065        37.93015         1.54103
C         19.65965        38.60742         1.20921
O         18.84445        18.26612        -2.91455
O          2.43375        25.92856        -1.59610
O         14.58068        26.47515         2.45666
O          9.39185        33.61270         0.88833
O         17.91448        25.46965        -0.20083
O         12.61087        33.67802         1.66005
O          3.97881        14.64399        -1.10176
O          5.97079        37.28405        -0.05790
O          6.14725        28.20245        -1.75548
O         14.13876         8.06367         1.37057
O         10.68597        31.65268        -1.81087
O          6.70370        33.99769         0.80700
O         16.98589        31.49151        -0.59111
O          5.45701         5.73309        -1.75754
O         18.29634        36.00292        -0.65574
O          6.12011        24.56174         2.06625
O         19.37635        34.88308         2.50093
O         12.48190         4.62378        -1.65876
O         18.24107        20.54756         1.31605
O          3.23728         6.94767        -1.41805
O         17.49341        10.13068        -2.58796
O          2.56757        20.84282         2.28586
O          4.68761        22.21065         2.47720
O         11.63640        12.43730         1.78080
O          2.78657        31.81385         0.80994
O         19.11210        33.36989        -0.85357
H         18.42478        32.82230        -1.30073
O          0.90515        16.39512         2.65699
H          0.90993        17.35761         2.84990
O          3.91650        22.87194        -1.00164
H          3.24465        23.26463        -1.60140
O          5.50158        35.13656        -2.91380
H          4.73461        34.71521        -3.35841
O         14.51603        14.41704        -2.02703
H         13.85296        13.76564        -2.33839
O         17.01605        30.06189         2.78363
H         17.05923        29.16323         3.19347
O         11.09412        19.07156         2.69455
H         12.03489        19.25143         2.94736
O         16.72544         7.79994         1.37860
H         15.98158         7.66400         2.00740
O         14.93443        34.38864         2.42205
H         13.99370        34.35489         2.72247
O         13.40560        31.09472        -1.92357
H         12.70296        30.86268        -2.56963
O         14.18851        12.12871         1.83964
H         13.41091        12.04695         2.43956
O          1.23345        20.64261        -1.12796
H          0.51265        20.12651        -1.54607
O         15.05549        10.61355        -2.24021
H         15.75073        10.62012        -2.94163
O         12.23819        10.28087        -1.67417
H         11.52039         9.73908        -2.07085
O         19.91469        25.49369         2.86734
H         19.96637        24.55956         3.15726
O         14.75160         5.41739         1.45960
H         14.55284         6.32782         1.79357
O         20.08537        26.99158        -0.44499
H         19.98203        27.90740        -0.77896
O         16.14312        14.80487         1.21944
H         17.02908        15.14519         1.46293
O         17.14265        27.10549         3.04381
H         16.22051        26.80548         3.25564
O         13.86433        18.95314         2.45159
H         14.05539        18.00193         2.60412
O         10.02709         3.86939        -2.31657
H         10.92067         4.17349        -2.60240
O         13.46765        23.36881         2.76622
H         12.68305        23.87396         3.07060
O          1.91864        33.22151        -3.02727
H          1.23408        32.78290        -3.57510
O          7.33034        14.33636        -1.69046
H          6.41590        14.16745        -2.00800
O          1.89018        34.42171         0.41336
H          2.61926        34.68897         1.01056
H          1.63575         2.30209         1.49698
H         -0.50899         3.49348         1.95131
H         -0.70870         5.91335         1.55439
H         -0.86651         7.77036         1.15858
H         -0.92591        10.19322         1.19466
H         -0.93021        12.05770         1.38585
H         -0.95260        14.50333         1.56820
H         -1.03180        16.36724         0.37671
H         -0.99976        18.80299         0.05239
H         -1.13558        20.78830         0.84168
H         -1.06884        23.22879         0.98062
H         -1.04866        25.10769         0.20209
H         -1.02959        27.47936        -0.34116
H         -0.95334        29.33713        -1.18404
H         -0.81683        31.70040        -1.81868
H         -0.87113        33.69096        -1.80961
H         -0.77994        36.12371        -2.06644
H          0.57481        38.11664        -2.73407
H          3.95807         2.34176         0.80052
H          2.76075        39.29225        -2.84897
H          6.34281         2.36223         0.23111
H          5.23327        39.23616        -2.65816
H          8.66046         2.34573        -0.36328
H          7.74179        39.35078        -1.99220
H         10.94761         2.64057         0.58526
H         10.09007        39.44610        -1.26914
H         13.92877         2.07855        -0.26067
H         12.49314        39.50051        -0.71633
H         16.21114         2.32797        -0.55762
H         14.89542        39.56109        -0.18184
H         18.59557         2.43246        -0.90580
H         17.25544        39.62556         0.46076
H         20.65578         3.75235        -1.29094
H         21.78411         5.88882        -1.64210
H         21.75301         8.33531        -1.83573
H         21.78214        10.29061        -1.52925
H         21.66870        12.70353        -1.80783
H         21.35400        14.49303        -2.76913
H         20.93669        16.85369        -3.44720
H         20.59425        20.08927        -3.33191
H         21.04187        22.10547        -1.92701
H         21.80918        23.03980        -0.04994
H         21.99960        25.27793         0.87688
H         21.94667        27.20920         1.81962
H         21.91845        29.64585         1.98986
H         22.03087        31.55857         1.59019
H         22.02264        33.98977         1.62388
H         21.90244        36.09140         1.92883
H         21.75399        38.53960         1.78072
H         19.63326        39.70566         1.25235
