         349
 CSIRO Nanostructure Databank - Neutral Graphene Oxide Data Set
C          1.88709         4.31264         2.89699
C          0.67226         5.02156         2.94205
C          1.81986         7.19494         3.31672
C          0.60630         6.39096         3.10621
C          1.83100         8.72736         3.12461
C          0.48494         9.27262         2.72287
C          1.51846        11.12205         1.50282
C          0.36014        10.41062         2.01183
C          1.42381        12.43244         1.01780
C          0.20399        13.16081         1.00392
C          1.25103        15.11504        -0.07083
C          0.13382        14.44928         0.52111
C          1.13196        16.49293        -0.47870
C         -0.03747        17.22195        -0.46661
C          1.11978        19.35517        -0.80714
C         -0.03715        18.63232        -0.73136
C          1.12633        20.83442        -0.72956
C         -0.04577        21.63277        -1.08266
C          1.25882        23.71526        -0.94309
C          0.01936        22.99090        -1.09695
C          1.26729        25.15846        -0.86697
C          0.09341        25.89476        -0.64958
C          1.30398        27.99357        -0.39661
C          0.11700        27.28020        -0.38886
C          1.37322        29.35618         0.02589
C          4.35282         4.33703         2.99713
C          3.13325         4.98429         2.99916
C          4.31666         7.18416         2.68484
C          3.12658         6.46231         3.20522
C          4.19335         8.47591         2.10802
C          2.93817         9.20829         2.18237
C          3.93985        11.06624         0.84655
C          2.78768        10.42103         1.53069
C          3.57297        12.15250        -0.15922
C          2.68931        13.15223         0.58890
C          3.63113        14.99557        -0.80268
C          2.48710        14.42941        -0.19406
C          3.60635        16.42382        -1.18157
C          2.34899        17.19331        -0.96234
C          3.59498        19.34906        -1.41547
C          2.45937        18.66210        -0.61339
C          3.70624        20.81349        -1.03242
C          2.46989        21.56095        -0.76388
C          3.73605        23.69303        -1.05346
C          2.47637        23.01807        -0.95186
C          3.71833        25.13153        -1.09180
C          2.53274        25.83618        -0.95256
C          3.76412        27.78173        -0.03422
C          2.57169        27.35175        -0.91312
C          3.82394        29.28295         0.15022
C          2.57578        29.98478         0.25395
C          6.85365         4.34349         3.02940
C          5.60149         5.12484         3.32258
C          6.62481         7.01501         1.93423
C          5.52825         6.47606         2.62744
C          6.48461         8.23961         1.24015
C          5.29820         8.97958         1.36581
C          6.27044        10.74273        -0.23001
C          5.22719        10.31440         0.73749
C          6.06752        11.99872        -0.99354
C          4.78717        12.78227        -0.86293
C          6.03153        14.94315        -1.38963
C          4.83730        14.26665        -1.02384
C          6.06240        16.37461        -1.43959
C          4.89397        17.14239        -1.29852
C          6.12514        19.26450        -1.40679
C          4.90965        18.57432        -1.35065
C          6.14973        20.72467        -1.14296
C          4.89266        21.50660        -1.11560
C          6.22503        23.64227        -1.22831
C          4.94658        22.95270        -1.08502
C          6.25985        25.08172        -1.20347
C          4.99683        25.89281        -1.33967
C          6.22704        27.86548        -0.44108
C          5.04978        27.19878        -0.56602
C          6.28255        29.21374         0.12299
C          5.03461        29.90780         0.32667
C          9.20866         4.17859         2.32135
C          7.96078         4.88758         2.44138
C          9.04854         6.80461         1.16405
C          7.92058         6.29885         1.98011
C          8.83211         7.96115         0.24557
C          7.54364         8.71456         0.30076
C          8.63190        10.65304        -0.98229
C          7.46821        10.08284        -0.29108
C          8.58529        11.94367        -1.47930
C          7.29391        12.67719        -1.54237
C          8.58057        14.87469        -1.92871
C          7.26527        14.18140        -1.75777
C          8.55977        16.34379        -2.15902
C          7.29225        17.09850        -1.85458
C          8.59372        19.21464        -1.73015
C          7.36713        18.56165        -1.60538
C          8.61690        20.70421        -1.80745
C          7.44037        21.47786        -1.31933
C          8.68522        23.69070        -1.83226
C          7.42219        22.94742        -1.42360
C          8.72431        25.09946        -1.28490
C          7.48664        25.77340        -1.15168
C          8.78974        27.94899        -0.68835
C          7.47356        27.24258        -0.95145
C          8.76498        29.20103         0.12010
C          7.49209        29.81600         0.39790
C         11.58908         4.07747         1.70973
C         10.32415         4.69760         1.66267
C         11.41722         6.67936         0.48726
C         10.15843         5.87766         0.72912
C         11.29827         8.00851        -0.07611
C         10.05184         8.61672        -0.25344
C         11.18188        10.56863        -1.42161
C          9.88862         9.84936        -1.03480
C         11.11319        12.00118        -1.85319
C          9.77312        12.68201        -1.99288
C         10.95895        14.84402        -2.76032
C          9.73949        14.17861        -2.09326
C         11.02217        16.37403        -2.52540
C          9.85634        17.07181        -2.18143
C         11.06472        19.19865        -1.95854
C          9.83866        18.49817        -1.96945
C         11.14133        20.65408        -1.52333
C          9.91007        21.45251        -1.87424
C         11.16471        23.54693        -1.38378
C          9.96037        22.91012        -1.58551
C         11.21904        24.97882        -1.06984
C          9.96451        25.75441        -1.02152
C         11.26441        27.81668        -0.39598
C         10.00225        27.11390        -0.66586
C         11.24528        29.21267         0.24266
C          9.92128        29.73582         0.62640
C         13.99795         4.08041         1.22287
C         12.74635         4.71327         1.19266
C         13.86528         6.78475         0.34422
C         12.65147         6.07328         0.66806
C         13.78601         8.10772        -0.15993
C         12.51716         8.72499        -0.41166
C         13.66211        10.75010        -1.24154
C         12.45916        10.02883        -0.93125
C         13.61625        12.09260        -1.73542
C         12.32338        12.86842        -1.53811
C         13.43316        14.50869        -2.96326
C         12.26843        14.12341        -2.37208
C         13.46498        16.59020        -3.17530
C         12.23328        17.13681        -2.68625
C         13.50716        19.20171        -2.38380
C         12.25655        18.50722        -2.27603
C         13.59116        20.56869        -1.81156
C         12.36615        21.41978        -2.06096
C         13.62380        23.38851        -1.11530
C         12.43313        22.80600        -1.44413
C         13.74852        24.84707        -0.74647
C         12.41631        25.57166        -0.78047
C         13.01044        26.84211         1.14786
C         12.53678        26.99093        -0.29837
C         13.10765        28.93433         1.83830
C         12.47467        29.73284         0.93622
C         16.42935         4.08897         0.76230
C         15.18796         4.75556         0.83907
C         16.33556         6.86968         0.21965
C         15.12432         6.14393         0.47152
C         16.25422         8.19894        -0.26048
C         14.99171         8.79450        -0.51571
C         16.05681        10.59485        -1.87966
C         14.89919        10.08251        -1.12529
C         16.03533        11.99867        -2.32092
C         14.80576        12.71860        -2.19486
C         15.96198        14.87600        -2.71761
C         14.76990        14.07899        -2.63186
C         16.00571        16.35721        -2.68640
C         14.75790        17.11705        -2.91324
C         16.47273        19.46474        -2.07708
C         14.64395        18.53808        -2.80838
C         16.14793        20.46078        -1.23218
C         14.84064        21.16792        -1.27894
C         15.97654        23.08246        -0.01220
C         14.89556        22.63453        -1.01062
C         15.84239        24.44197         0.69948
C         14.36050        24.86415         0.71779
C         14.84924        26.44863         2.77250
C         14.12204        26.14797         1.46878
C         15.13033        27.95509         2.99053
C         14.37383        29.02992         2.52552
C         18.86097         4.07445         0.22040
C         17.61751         4.79342         0.49023
C         18.86691         6.94683         0.25559
C         17.59221         6.19838         0.36419
C         18.82101         8.34334        -0.30763
C         17.48087         9.06265        -0.45273
C         18.61018        10.58073        -2.20381
C         17.37532         9.90038        -1.70785
C         18.48772        11.96826        -2.78837
C         17.19623        12.69624        -2.66066
C         18.41769        14.79815        -2.32090
C         17.18766        14.13748        -2.66332
C         18.34224        16.13061        -1.81907
C         17.20108        16.95249        -2.14528
C         18.48595        18.82000        -0.77595
C         17.47604        18.40694        -1.83620
C         18.37163        20.18745        -0.07274
C         16.90682        20.64408         0.04854
C         17.60301        22.31693         1.72692
C         16.85375        22.05995         0.58250
C         17.30449        23.48824         2.53190
C         16.37774        24.43480         2.12381
C         17.02961        25.95320         3.92382
C         16.09947        25.59013         2.93978
C         17.07893        27.32127         4.39381
C         16.22705        28.27945         3.84485
C         20.02795         4.70848         0.00190
C         21.29866         6.85897        -0.42981
C         20.18769         6.17184         0.32626
C         21.24112         8.11949        -0.91463
C         20.01376         8.89586        -1.01155
C         21.08544        10.76587        -2.28909
C         19.92896        10.04722        -1.77627
C         21.01085        12.01202        -2.80798
C         19.73867        12.79449        -3.04267
C         20.71283        14.57380        -1.51404
C         19.64474        14.08078        -2.25936
C         20.55627        15.75512        -0.78903
C         19.40988        16.55272        -0.94475
C         19.92234        17.98374         1.05589
C         19.29371        17.76358        -0.16433
C         19.74054        19.17449         1.79209
C         18.94389        20.23218         1.34151
C         19.32787        21.63562         3.36893
C         18.61710        21.36131         2.14407
C         19.02826        22.68421         4.17355
C         17.83650        23.57299         3.94618
C         18.97713        25.42074         5.28887
C         18.02891        25.01785         4.37227
C         19.01198        26.76375         5.76747
C         18.09876        27.68878         5.33194
O          7.01402        21.02580         0.02069
O          9.01551         7.13102         2.57391
O         10.50639        12.13004        -3.15901
O         13.88667        20.49542        -0.33327
O         12.44302        27.70422         2.10556
O         18.50681        10.79925        -3.65901
O         18.81060        18.91133        -2.21202
O          2.60999         6.82954         4.53275
O         13.37344        15.46956        -3.97908
O          5.04648        11.96471        -2.05765
O         16.51826         9.48669        -2.78725
O          7.66532        16.74888        -3.24937
O         15.72358        19.31444        -3.24196
O         14.62665        25.46936        -1.65797
O         16.12693        23.22769        -1.46934
O         11.38425        29.04239        -1.19375
O         10.49308         9.70242        -2.36390
O          8.12547        28.02030        -2.00153
O          7.80039         7.71771        -0.77018
O          5.03689        11.40466         1.74347
O          1.80322        21.22380         0.53563
O          2.69562        16.79265        -2.32894
O          9.18091        21.14102        -3.10513
O          7.04568        13.24090        -2.86545
O         19.01053         8.12111         1.14790
O          2.75700        27.86650        -2.25094
H          3.49595        27.35904        -2.67564
O         19.71520        13.15422        -4.44828
H         19.47172        12.34014        -4.94173
O         12.18758        21.56911        -3.48394
H         12.75195        22.30329        -3.80377
O         16.76727        23.04802         4.81373
H         16.99307        23.27986         5.73922
O          5.59003         5.35854         4.76796
H          4.73920         5.79340         4.99513
O         19.10050        21.14598        -0.85424
H         19.21308        20.77192        -1.75878
O          8.59165        23.83226        -3.29627
H          8.75359        22.93086        -3.67157
O         13.56912        27.71438        -0.97530
H         14.16580        27.03724        -1.42237
O          2.73190        11.55014        -1.16098
H          3.30553        11.34201        -1.93702
O          9.73915         5.33083        -0.55403
H         10.49083         4.82932        -0.93285
O          3.40807        13.55271         1.78634
H          2.79852        14.06867         2.35378
O          3.19503        19.37942        -2.81235
H          3.05318        18.43835        -3.08960
O         12.19185        13.17604        -0.11101
H         13.01396        13.62336         0.18032
O         16.27955        19.78258         1.04057
H         15.30663        19.93101         0.98096
O         17.45580        10.07397         0.60603
H         17.79463         9.62701         1.41707
O         10.75569        14.67467        -4.17683
H         10.64241        13.70912        -4.33987
O          4.95161        26.28777        -2.76753
H          5.82134        26.68385        -2.99816
O         16.61003        25.42220        -0.00353
H         16.14387        25.53374        -0.88702
O          3.52282        27.19712         1.27938
H          4.22597        27.51216         1.88494
O         13.63119        23.84797         1.45981
H         13.73968        24.03156         2.41926
O          2.79015        18.71196         0.79424
H          2.57128        19.62716         1.10656
O          2.12645         9.33004         4.41398
H          2.61767         8.64972         4.93474
O         20.61626         6.18825         1.72185
H         20.40113         7.08770         2.06092
O         13.96496        26.04229         3.86399
H         13.14497        26.57794         3.75933
O         11.17870        20.66902        -0.07712
H         12.11190        20.53018         0.21028
H          1.87733         3.22098         2.77165
H         -0.26528         4.46062         2.81697
H         -0.37375         6.88241         3.04970
H         -0.41654         8.81555         3.15441
H         -0.64399        10.81652         1.82562
H         -0.71366        12.70075         1.39494
H         -0.82898        14.97452         0.57487
H         -0.99901        16.75046        -0.22251
H         -1.00992        19.14353        -0.77594
H         -0.97631        21.12320        -1.36954
H         -0.89223        23.55726        -1.33272
H         -0.87243        25.37565        -0.58428
H         -0.81686        27.78202        -0.09377
H          0.43259        29.90071         0.20079
H          4.40123         3.24232         2.89667
H          2.59495        31.04472         0.54922
H          6.88740         3.30468         3.39293
H          5.06918        30.98412         0.55555
H          9.30430         3.21634         2.84907
H          7.49813        30.81616         0.85677
H         11.70335         3.12131         2.24342
H          9.86833        30.60567         1.29856
H         14.06484         3.03741         1.56658
H         12.90523        30.68791         0.60467
H         16.47094         3.00133         0.91998
H         14.75622        30.04089         2.74454
H         18.79346         2.98216         0.10287
H         16.39102        29.33841         4.09926
H         20.93385         4.13760        -0.25032
H         22.26108         6.32523        -0.46061
H         22.14695         8.53818        -1.37661
H         22.07726        10.30155        -2.18894
H         21.93572        12.48797        -3.16796
H         21.65367        14.00956        -1.45497
H         21.37041        16.10337        -0.13915
H         20.52975        17.18459         1.50392
H         20.18597        19.21662         2.79632
H         20.17503        20.98976         3.64269
H         19.60859        22.81807         5.09908
H         19.73106        24.71648         5.66775
H         19.78985        27.04925         6.48922
H         18.13447        28.72483         5.69837
