         430
 CSIRO Nanostructure Databank - Neutral Graphene Oxide Data Set
C         28.05842        27.41540         1.53785
C         28.01758        28.83883         1.46272
C         26.84043        29.55553         1.52892
C         27.96417        31.69134         1.08533
C         26.83565        30.97860         1.43932
C         27.98364        33.13041         0.96227
C         26.78935        33.88387         1.07005
C         28.00202        35.97101         0.74293
C         26.79790        35.26038         0.97034
C         27.99686        37.41637         0.60200
C         26.84164        38.17562         0.90020
C         28.00275        40.24315         0.34622
C         26.85885        39.55256         0.81598
C         28.01911        41.70104         0.31014
C         26.95073        42.45615         0.96676
C         27.74403        44.60069        -0.01641
C         26.85592        43.79443         0.89235
C         28.00944        45.97694         0.53741
C         30.48001        27.40586         1.10539
C         29.24090        26.73319         1.38638
C         30.52469        28.79426         1.02907
C         29.32209        29.60863         1.46115
C         30.48307        31.70400         0.74238
C         29.19607        30.90884         0.66922
C         30.45789        33.09496         0.72126
C         29.21759        33.82370         0.76582
C         30.44248        35.96421         0.34082
C         29.21810        35.25140         0.63823
C         30.40100        37.35530         0.00254
C         29.15825        38.09046         0.14565
C         30.26254        40.17212        -0.74299
C         29.12570        39.49454        -0.07288
C         30.27544        41.68590        -0.76945
C         29.08125        42.38583        -0.23493
C         30.35854        44.56676        -0.44773
C         29.02899        43.85458        -0.38252
C         30.42947        45.95713         0.04412
C         29.21436        46.59273         0.49564
C         32.77402        24.48087         0.16443
C         31.69262        25.15336         0.59941
C         32.95380        27.37107         0.51662
C         31.72069        26.61067         0.89950
C         32.91970        28.84162         0.40517
C         31.71998        29.53320         0.69400
C         32.93011        31.67447         0.37559
C         31.70521        30.96678         0.63792
C         32.95344        33.09283         0.38870
C         31.74941        33.86691         0.86955
C         32.85831        35.95442        -0.02258
C         31.67780        35.27686         0.32280
C         32.82550        37.35726        -0.31988
C         31.58642        38.03778        -0.32897
C         32.82558        40.21754        -0.76093
C         31.56057        39.39912        -0.98995
C         32.82701        41.62979        -0.82340
C         31.58275        42.39930        -0.77441
C         32.84620        44.51102        -0.57256
C         31.61447        43.77535        -0.54752
C         32.87741        45.88595        -0.30970
C         31.67225        46.59602         0.08540
C         32.97494        48.65008         0.32826
C         31.79121        47.98046         0.44732
C         35.38636        23.03402        -0.21257
C         35.31758        24.46004        -0.36047
C         34.01988        25.16128        -0.28313
C         35.35354        27.36382        -0.25265
C         34.05488        26.66301        -0.20781
C         35.34111        28.81069        -0.19126
C         34.12159        29.52211         0.07788
C         35.32632        31.65857        -0.21849
C         34.12383        30.95128         0.07533
C         35.31415        33.06745        -0.25273
C         34.13902        33.78202         0.07203
C         35.28841        35.91218        -0.33604
C         34.12228        35.24333        -0.05987
C         35.26533        37.31577        -0.75911
C         34.02857        38.07850        -0.61420
C         35.31818        40.20834        -0.75848
C         34.05654        39.49597        -0.74188
C         35.30546        41.64333        -0.81057
C         34.07276        42.32730        -0.86000
C         35.34539        44.52822        -0.92810
C         34.04530        43.80429        -1.15912
C         35.32184        45.91611        -0.78675
C         34.11987        46.62451        -0.41493
C         35.40793        48.76277        -0.24760
C         34.16778        48.00006        -0.12773
C         35.46242        50.14482         0.03953
C         37.74893        23.02583        -1.01493
C         36.53517        22.34532        -0.43719
C         37.77105        24.50527        -0.67592
C         36.52421        25.19335        -0.49082
C         37.82149        27.38203        -0.23168
C         36.52190        26.63645        -0.39960
C         37.76781        28.76322        -0.87975
C         36.53080        29.52955        -0.46099
C         37.80286        31.65503        -0.56390
C         36.54553        30.93168        -0.47136
C         37.82502        33.05012        -0.53554
C         36.53573        33.80608        -0.75226
C         37.84201        35.94964        -0.46906
C         36.59086        35.18781        -0.11606
C         37.84828        37.33926        -0.57315
C         36.59220        38.06959        -0.85040
C         37.80046        40.22313        -0.61752
C         36.55975        39.52922        -0.71909
C         37.79135        41.65854        -0.66271
C         36.56338        42.35676        -0.81320
C         37.81658        44.47431        -0.88876
C         36.57977        43.79162        -0.92808
C         37.86079        45.91370        -1.14043
C         36.53776        46.69456        -1.04156
C         37.81704        48.83260        -0.76447
C         36.59551        48.12478        -0.68251
C         37.83744        50.21214        -0.48495
C         36.64978        50.85013        -0.08524
C         40.29491        20.24155        -0.39114
C         39.09185        20.90962        -0.53618
C         40.26616        23.01762        -0.78936
C         39.05821        22.30896        -0.72293
C         40.23883        24.47075        -1.07405
C         38.98844        25.21834        -0.79317
C         40.27785        27.34565        -0.69288
C         39.04835        26.61883        -0.66545
C         40.26010        28.79117        -0.56228
C         39.05190        29.51140        -0.60771
C         40.27524        31.62972        -0.39168
C         39.04425        30.92043        -0.53252
C         40.28664        33.07705        -0.38962
C         39.05639        33.77719        -0.44942
C         40.29373        35.92811        -0.47132
C         39.06282        35.21942        -0.45333
C         40.29692        37.36088        -0.47659
C         39.07309        38.07075        -0.53964
C         40.27208        40.22603        -0.41733
C         39.04401        39.51415        -0.54063
C         40.26400        41.66483        -0.40262
C         39.03630        42.36679        -0.56082
C         40.26648        44.52270        -0.53037
C         39.04251        43.79505        -0.64434
C         40.27722        45.96966        -0.65236
C         39.10444        46.65155        -0.92402
C         40.34167        48.84284        -0.82869
C         39.07812        48.12691        -1.24344
C         40.34898        50.20570        -0.76336
C         39.12550        51.00147        -0.39948
C         40.30707        53.05799        -1.05904
C         39.13668        52.36663        -1.04063
C         42.76206        20.25837        -0.26038
C         41.51991        20.94655        -0.42406
C         42.77128        23.07535        -0.60617
C         41.51619        22.35585        -0.62332
C         42.79839        24.49281        -0.71036
C         41.55560        25.23042        -1.00669
C         42.74858        27.37385        -0.54725
C         41.51954        26.67618        -0.74207
C         42.73500        28.77775        -0.36973
C         41.49261        29.49585        -0.38619
C         42.70420        31.65846         0.14526
C         41.47431        30.90298        -0.26124
C         42.81403        33.00207        -0.59010
C         41.52340        33.79664        -0.42324
C         42.79069        35.94008        -0.58734
C         41.52025        35.18827        -0.48366
C         42.77046        37.40222        -0.36849
C         41.54074        38.09130        -0.38728
C         42.73866        40.23338        -0.12412
C         41.50976        39.52098        -0.31586
C         42.72350        41.68815        -0.06692
C         41.48757        42.38927        -0.25278
C         42.70921        44.54936        -0.16021
C         41.48011        43.82014        -0.31183
C         42.72775        45.97264        -0.20579
C         41.53248        46.69650        -0.50348
C         42.77733        48.81764        -0.30583
C         41.57112        48.09698        -0.63182
C         42.81372        50.24127        -0.34450
C         41.64195        50.94086        -0.97402
C         42.70673        53.09701        -0.34850
C         41.55341        52.41799        -0.71620
C         43.94933        20.94172        -0.26052
C         45.23513        23.08247        -0.35882
C         43.99146        22.36329        -0.41115
C         45.23883        24.50183        -0.40322
C         44.00225        25.21598        -0.55178
C         45.22245        27.37152        -0.42979
C         43.99796        26.65504        -0.52667
C         45.22328        28.78026        -0.27093
C         43.97426        29.49765        -0.19304
C         45.21710        31.56979         0.47449
C         43.97007        30.86823         0.02740
C         45.19165        33.07161         0.23319
C         44.07258        33.73380        -0.15059
C         45.27028        35.97402         0.04182
C         44.08862        35.19937        -0.39001
C         45.21255        37.38390         0.09186
C         43.99139        38.10162        -0.12432
C         45.16107        40.26869         0.49035
C         43.94323        39.52269         0.00825
C         45.19732        41.71705         0.09914
C         43.92595        42.41458         0.07946
C         45.15092        44.55897         0.17104
C         43.92737        43.84319         0.03461
C         45.16748        45.95113         0.24311
C         43.93935        46.68231         0.07157
C         45.07684        48.84071         0.63211
C         43.92254        48.09595         0.11113
C         45.15368        50.29394         0.46289
C         43.96102        50.99174         0.01222
C         43.89137        52.40973        -0.02741
C         47.67593        23.08822        -0.20932
C         46.48981        22.40372        -0.25684
C         47.71396        24.51685        -0.24482
C         46.47654        25.22268        -0.33711
C         47.70356        27.34803        -0.42333
C         46.47936        26.64618        -0.41344
C         47.69376        28.81600        -0.78699
C         46.45558        29.53606        -0.28872
C         47.65935        31.71848        -0.32683
C         46.45889        30.89542        -0.06383
C         47.70619        33.12323         0.08391
C         46.46038        33.79772         0.63188
C         47.69984        35.97248         0.35749
C         46.45240        35.27279         0.33217
C         47.70615        37.38039         0.35784
C         46.42457        38.09523         0.65015
C         47.64708        40.20822         0.01591
C         46.46020        39.55006         0.28997
C         47.64716        41.65758        -0.43845
C         46.38568        42.37704        -0.02059
C         47.64000        44.56242        -0.23523
C         46.45205        43.82307         0.37614
C         47.64959        45.99939         0.24980
C         46.43623        46.64297         0.42494
C         47.65867        48.82815         0.78970
C         46.41549        48.05669         0.81911
C         47.57807        50.21784         0.88335
C         46.36662        50.92533         0.72821
C         50.23350        24.57683        -0.12508
C         48.93788        25.24669        -0.18547
C         50.21752        27.38035        -0.00697
C         48.91655        26.65331        -0.26874
C         50.16749        28.85566        -0.31532
C         48.99805        29.52261        -0.46128
C         50.22981        31.73178        -0.23864
C         48.99597        31.00112        -0.57237
C         50.17976        33.12237        -0.03567
C         48.91335        33.81959         0.07137
C         50.15266        35.97126         0.21664
C         48.92959        35.25278         0.25358
C         50.15486        37.38551         0.15925
C         48.91515        38.10168         0.18527
C         50.13000        40.22534        -0.45274
C         48.88590        39.50734        -0.00789
C         50.14090        41.69230        -0.06349
C         48.92992        42.40098        -0.08644
C         50.13232        44.51759         0.24566
C         48.92593        43.81131         0.03029
C         50.13036        45.96243         0.40420
C         48.89760        46.69135         0.44109
C         50.14932        48.76199         0.79979
C         48.90218        48.09898         0.67012
C         51.39609        25.22008        -0.34902
C         52.69804        27.40792        -0.13014
C         51.44828        26.69923        -0.64976
C         52.69002        28.80315        -0.04207
C         51.48824        29.57378        -0.53258
C         52.62787        31.68349         0.26221
C         51.45308        31.01829        -0.09758
C         52.62431        33.11738         0.37263
C         51.39989        33.83799         0.18620
C         52.62869        35.96699         0.31769
C         51.39974        35.25167         0.24187
C         52.64611        37.38179         0.21187
C         51.40038        38.11652         0.07812
C         52.67923        40.23141        -0.35424
C         51.39712        39.49021        -0.10255
C         52.62619        41.67948         0.06697
C         51.38076        42.37811         0.10663
C         52.60300        44.50939         0.43545
C         51.36550        43.80113         0.29201
C         52.61085        45.92892         0.56996
C         51.35881        46.65287         0.57380
C         51.33436        48.06339         0.75201
C         55.01596        27.36499         0.61769
C         53.87780        26.69923         0.21319
C         55.03124        28.78127         0.70877
C         53.85271        29.51275         0.37728
C         55.02916        31.60882         0.88947
C         53.86244        30.94502         0.48709
C         55.03896        33.10284         1.13721
C         53.81908        33.82296         0.61667
C         55.09674        35.93936         0.53596
C         53.85232        35.23696         0.50117
C         55.11078        37.35582         0.45393
C         53.88400        38.08478         0.26211
C         55.11006        40.21485         0.28468
C         53.90838        39.50277         0.12717
C         55.10152        41.66407         0.27247
C         53.84516        42.36653         0.25656
C         55.06649        44.49771         0.54221
C         53.83539        43.79181         0.42640
C         55.04912        45.91060         0.68251
C         53.85584        46.60058         0.69792
C         56.19487        29.48322         1.12504
C         56.18758        30.86004         1.21268
C         56.30212        33.80842         0.70824
C         56.31573        35.14828         0.52719
C         56.32061        38.10821         0.57051
C         56.31468        39.47795         0.52216
C         56.30179        42.40598         0.37199
C         56.29324        43.78252         0.49508
O         40.93087        24.85689        -2.29774
O         37.13096        46.36347        -2.34947
O         29.90689        40.90391        -1.96968
O         43.62370        35.53360        -1.75428
O         35.93577        37.56017        -2.05861
O         33.70600        26.01620        -1.47176
O         45.53047        48.35904         1.93694
O         48.22559        31.51792        -1.70204
O         32.77181        26.90991         1.90792
O         29.52887        44.35602        -1.66719
O         41.88395        50.85027        -2.44038
H         41.72041        49.91837        -2.70462
O         29.58033        29.99153         2.84665
H         29.69443        29.16827         3.36628
O         42.96192        32.73546        -2.00310
H         43.14428        33.60323        -2.43447
O         50.44992        27.28644         1.43399
H         49.65387        27.62553         1.89407
O         37.67799        28.55261        -2.31493
H         37.73811        29.42399        -2.75824
O         46.70647        43.79436         1.81822
H         45.99520        43.26475         2.23852
O         47.62175        28.85872        -2.24785
H         47.64325        29.81440        -2.49697
O         45.23595        31.40008         1.95693
H         44.32514        31.66480         2.24611
O         51.63652        29.61457        -2.00767
H         50.87642        30.12199        -2.36764
O         54.98753        33.24099         2.60664
H         54.97537        34.20162         2.80531
O         29.00856        30.54257        -0.72768
H         28.90590        31.36799        -1.24557
O         42.54319        32.00686         1.57854
H         42.00769        31.29917         1.99697
O         39.31180        51.27050         1.04210
H         39.31553        50.40735         1.50787
O         33.84159        43.87631        -2.62374
H         33.88679        44.82168        -2.88253
O         39.08138        48.22899        -2.70722
H         38.34886        47.64263        -3.02258
O         47.43307        44.59456        -1.67199
H         48.28734        44.79712        -2.10542
O         47.60707        41.61040        -1.89868
H         48.42311        41.12880        -2.18817
O         31.60141        39.07575        -2.41421
H         31.15827        39.82489        -2.88023
O         52.81572        40.28019        -1.85652
H         53.08999        39.38173        -2.14353
O         36.38011        33.99714        -2.18425
H         36.30760        33.11607        -2.60599
O         46.25710        38.01363         2.15097
H         47.14967        38.11645         2.54671
O         26.99077        44.80150        -1.24762
H         27.66175        44.93107        -1.95759
O         36.69322        34.94330         1.32264
H         36.73096        35.80747         1.78263
O         50.07693        40.24267        -1.94069
H         51.00500        40.43979        -2.23761
O         46.57135        33.70946         2.09578
H         46.24886        32.80439         2.34893
O         51.40877        26.84153        -2.08358
H         51.54840        27.79868        -2.29852
O         44.97767        40.36118         1.96063
H         45.23847        39.47384         2.32590
O         37.59573        22.95170        -2.47784
H         36.81886        23.50009        -2.71918
O         37.97649        27.61753         1.20535
H         37.92477        26.75114         1.66050
O         31.93696        34.04442         2.32491
H         31.91476        33.15123         2.73062
H         27.11891        26.86195         1.68528
H         25.88441        29.02797         1.66566
H         25.88856        31.49668         1.64691
H         25.82921        33.37244         1.21828
H         25.84256        35.79632         1.03811
H         25.92558        37.68212         1.24881
H         25.95197        40.10600         1.08910
H         26.23826        41.91046         1.60021
H         26.05058        44.32391         1.42257
H         27.13395        46.53522         0.90166
H         29.23325        25.63681         1.45097
H         29.27614        47.62379         0.87103
H         32.69989        23.39183         0.02641
H         30.77375        24.59110         0.82185
H         32.99894        49.71510         0.59035
H         30.90686        48.53410         0.78678
H         34.48356        22.48612         0.09314
H         34.56733        50.68569         0.37093
H         36.51996        21.25138        -0.34316
H         36.67281        51.92169         0.15735
H         40.30709        19.15046        -0.25627
H         38.16235        20.32595        -0.53068
H         40.32016        54.12200        -1.34489
H         38.19015        52.84474        -1.33156
H         42.74988        19.16732        -0.12425
H         42.68759        54.19338        -0.25693
H         44.88121        20.37895        -0.11993
H         44.76978        53.00094         0.26487
H         48.61171        22.51766        -0.14581
H         46.51839        21.30665        -0.23214
H         48.49788        50.81397         0.95911
H         46.42673        52.02221         0.69546
H         50.25670        23.49156         0.04906
H         50.17964        49.84715         0.96383
H         52.32449        24.63221        -0.38974
H         52.27161        48.62056         0.87463
H         55.92630        26.80197         0.86999
H         53.90150        25.60351         0.14746
H         56.00188        46.45178         0.77260
H         53.88621        47.69263         0.80290
H         57.09801        28.91479         1.39028
H         57.08699        31.38287         1.56652
H         57.24464        33.24398         0.65801
H         57.26835        35.64895         0.30101
H         57.27166        37.58560         0.74006
H         57.26425        40.01188         0.65851
H         57.27013        41.88870         0.34991
H         57.23985        44.33681         0.56730
