         404
 CSIRO Nanostructure Databank - Neutral Graphene Oxide Data Set
C          1.27139         5.00711        -4.08762
C          0.06965         5.55548        -3.67295
C          1.23898         7.12401        -2.20547
C          0.04654         6.59081        -2.72518
C          1.24832         8.11124        -1.13320
C          0.08172         8.31841        -0.38297
C          1.30603         9.79988         1.06817
C          0.13173         9.11363         0.75527
C          1.23530        11.84266         2.03585
C          0.03049        12.50682         2.22248
C          1.12940        14.66272         2.05944
C         -0.03935        13.91409         2.08935
C          1.16776        16.10653         1.99555
C         -0.03557        16.83966         1.87998
C          1.17657        18.94094         1.63114
C         -0.03195        18.20983         1.70561
C          1.17448        20.35951         1.35661
C         -0.03073        21.07122         1.15453
C          1.18426        23.14724         0.77415
C         -0.02616        22.42433         0.87461
C          1.18752        24.57923         0.55055
C         -0.00781        25.30428         0.34290
C          1.20230        27.41987         0.40790
C          0.00342        26.68191         0.24103
C          1.19345        28.88699         0.38948
C         -0.01236        29.58458         0.22672
C          1.13890        31.72366         0.22449
C         -0.04012        30.97243         0.12999
C          1.06229        33.21415         0.14194
C         -0.07060        33.86786        -0.53665
C          1.17316        35.97720        -0.74186
C         -0.03986        35.19479        -0.82479
C          1.17812        37.33541        -1.19251
C          3.73365         4.95645        -3.97189
C          2.50134         5.52972        -3.60012
C          3.70710         7.23666        -2.25575
C          2.48224         6.63644        -2.68770
C          3.69250         8.37905        -1.37965
C          2.46110         8.78481        -0.77371
C          3.65599        10.61833         0.47894
C          2.47548         9.77609         0.26771
C          3.62946        11.90477         1.17931
C          2.45523        12.50287         1.71260
C          3.68072        14.68458         2.27205
C          2.40425        13.91909         2.15786
C          3.65814        16.16913         2.18942
C          2.40461        16.83200         2.00345
C          3.65172        18.96961         1.76371
C          2.40956        18.24984         1.81394
C          3.64585        20.36257         1.46672
C          2.41003        21.05920         1.25401
C          3.66223        23.15020         0.79423
C          2.41240        22.45562         0.95579
C          3.66474        24.57321         0.62671
C          2.41394        25.29494         0.59630
C          3.66846        27.45366         0.94773
C          2.40584        26.71607         0.57286
C          3.67549        28.91861         0.57320
C          2.40933        29.62686         0.50527
C          3.61382        31.80922         0.68191
C          2.36302        31.05045         0.45110
C          3.64255        33.30620         0.48447
C          2.34584        34.02166         0.23788
C          3.62661        36.01980        -0.63548
C          2.38179        35.36100        -0.37934
C          3.61181        37.38179        -1.09618
C          2.35308        38.02864        -1.32173
C          6.18107         4.88734        -3.82417
C          4.95182         5.49393        -3.50329
C          6.16485         7.30403        -2.31093
C          4.93460         6.68380        -2.68629
C          6.13456         8.51121        -1.53351
C          4.89956         9.03824        -1.02604
C          6.06921        10.98585        -0.01982
C          4.85778        10.21919        -0.17676
C          6.10737        12.16792         0.72832
C          4.86009        12.69917         1.24855
C          6.12256        14.65552         2.19645
C          4.88318        13.97928         1.80658
C          6.08754        16.13921         2.58195
C          4.85238        16.88732         2.27263
C          6.12435        19.02827         1.99010
C          4.89276        18.30428         2.02539
C          6.12760        20.37267         1.54344
C          4.88302        21.05350         1.30547
C          6.12851        23.04353         0.47827
C          4.87173        22.41537         0.89672
C          6.11904        24.55998         0.20997
C          4.87912        25.30014         0.47797
C          6.12314        27.41478         0.32669
C          4.91583        26.70922         0.54439
C          6.13917        28.85969         0.30072
C          4.88873        29.57759         0.42910
C          6.14365        31.77933         0.12261
C          4.92530        31.05416         0.55608
C          6.14264        33.16210        -0.15275
C          4.92224        33.97606         0.06721
C          6.07008        35.97733        -0.87136
C          4.86747        35.34156        -0.51282
C          6.05969        37.37749        -1.21600
C          4.82282        38.05309        -1.31678
C          8.62066         4.85825        -3.78849
C          7.41877         5.47797        -3.44959
C          8.64033         7.37546        -2.39767
C          7.39652         6.73949        -2.72959
C          8.59964         8.65660        -1.71171
C          7.36339         9.19102        -1.30273
C          8.61503        11.20867        -0.35752
C          7.28957        10.53702        -0.71925
C          8.60543        12.34002         0.58051
C          7.36592        12.87098         0.99584
C          8.59724        14.72724         2.07059
C          7.39782        14.05106         1.79323
C          8.58403        15.89915         3.04248
C          7.38462        16.89140         2.80169
C          8.64518        19.19215         2.29424
C          7.38709        18.40350         2.51772
C          8.60718        20.40648         1.60534
C          7.37304        21.08645         1.32517
C          8.63249        23.15213         0.66558
C          7.40575        22.39991         0.81823
C          8.63291        24.55574         0.31876
C          7.39506        25.28637         0.22105
C          8.56054        27.42083        -0.20087
C          7.34375        26.68238         0.14644
C          8.58802        28.87973        -0.05873
C          7.35043        29.57731         0.13322
C          8.54023        31.71453        -0.29152
C          7.34050        31.02780         0.00128
C          8.52339        33.07086        -0.66838
C          7.31687        33.81189        -0.62348
C          8.48093        35.92201        -1.27460
C          7.30825        35.24176        -0.92982
C          8.50476        37.35488        -1.44071
C          7.28303        38.05353        -1.43319
C         11.09327         4.64404        -3.28034
C          9.93230         5.55190        -3.62682
C         11.13709         7.34398        -2.36657
C          9.84489         6.73996        -2.71444
C         11.12358         8.66254        -1.66137
C          9.83210         9.29465        -1.30809
C         11.04098        10.84288         0.27562
C          9.84064        10.44075        -0.54371
C         11.09816        12.31646         0.60550
C          9.84019        12.97307         0.89599
C         11.06272        15.00126         1.67103
C          9.81722        14.22032         1.57451
C         11.06918        16.22048         2.50700
C          9.91147        16.59081         3.09695
C         11.14623        19.18513         2.39038
C          9.90514        18.74682         2.82253
C         11.16495        20.41634         1.58285
C          9.86145        21.07289         1.20841
C         11.10779        23.22446         0.84128
C          9.86914        22.51876         0.91313
C         11.11014        24.61270         0.50360
C          9.87038        25.24502         0.23038
C         11.12991        27.43075        -0.04257
C          9.89071        26.65498        -0.18014
C         11.07709        28.83997        -0.17896
C          9.82598        29.53815        -0.14894
C         11.11850        31.74018        -0.39576
C          9.82365        31.00796        -0.10959
C         11.05957        33.09299        -0.98226
C          9.75212        33.68565        -1.21597
C         10.99869        35.90659        -1.60877
C          9.72463        35.19194        -1.55180
C         10.98024        37.34002        -1.68454
C          9.74049        38.02368        -1.64995
C         13.41144         4.24689        -2.53056
C         12.25339         5.11196        -2.71273
C         13.48194         6.98347        -1.63574
C         12.33935         6.49225        -2.24782
C         13.53305         8.28336        -1.01635
C         12.34590         9.09859        -0.95441
C         13.64653        10.95255        -0.01238
C         12.32800        10.28689        -0.26061
C         13.57909        12.20421         0.81998
C         12.32359        12.89166         0.93891
C         13.63634        14.86133         1.86609
C         12.37233        14.29779         1.37488
C         13.65257        16.23593         2.40614
C         12.35605        16.97699         2.71287
C         13.60981        19.10321         2.30868
C         12.39422        18.46315         2.56800
C         13.64939        20.57507         2.14440
C         12.35229        21.27596         1.77339
C         13.58049        23.28821         1.05871
C         12.35625        22.60748         1.16611
C         13.58917        24.67156         0.67278
C         12.35624        25.33801         0.44344
C         13.59209        27.47189         0.09009
C         12.35315        26.74925         0.17279
C         13.57633        28.84204        -0.30389
C         12.31795        29.55823        -0.37740
C         13.49693        31.62315        -1.12549
C         12.31016        30.92544        -0.64317
C         13.48523        33.09454        -1.18154
C         12.23909        33.78019        -1.30992
C         13.45364        35.90632        -1.83499
C         12.22054        35.20905        -1.61908
C         13.44915        37.36034        -1.96745
C         12.20802        38.02421        -1.84091
C         15.75760         3.87788        -1.79844
C         14.58288         4.70099        -1.97681
C         15.56062         6.35611        -0.39484
C         14.75499         6.17302        -1.65720
C         15.46784         7.59028         0.29719
C         14.60665         8.61139        -0.12463
C         16.00651        10.61272         0.89278
C         14.68953         9.96390         0.47535
C         16.04437        12.10402         0.97065
C         14.79089        12.81059         1.16078
C         16.09626        14.86676         1.72636
C         14.82798        14.18601         1.62364
C         16.12249        16.26971         2.00175
C         14.89719        16.99407         2.21781
C         16.09571        19.13134         2.09428
C         14.86764        18.39791         2.21790
C         16.13188        20.51491         1.82346
C         14.88588        21.25290         1.71277
C         16.05390        23.21436         0.76140
C         14.82192        22.56201         1.24883
C         16.05376        24.68521         0.66555
C         14.84374        25.38933         0.60492
C         16.04839        27.53798         0.18338
C         14.83444        26.81244         0.32643
C         16.02846        28.86628        -0.28871
C         14.80191        29.51372        -0.53024
C         16.05826        31.70122        -0.91201
C         14.82726        30.88684        -1.07051
C         15.95441        33.12870        -1.01360
C         14.70748        33.78814        -1.23158
C         15.89507        35.70623        -2.08767
C         14.66913        35.17123        -1.66899
C         15.90432        37.77081        -2.41129
C         14.62038        38.19506        -2.01588
C         18.11442         3.64821        -0.95789
C         16.81215         4.30147        -0.99134
C         18.53509         6.36473         0.44355
C         16.57927         5.45044        -0.15529
C         18.58782         7.76971         0.58762
C         17.40946         8.52812         0.97345
C         18.47716        10.61302         0.28699
C         17.28891         9.87477         0.75587
C         18.47317        12.14092         0.46317
C         17.24230        12.79753         0.97014
C         18.52742        14.89536         1.36384
C         17.30024        14.20080         1.34607
C         18.57757        16.26168         1.79606
C         17.35685        16.94597         2.08074
C         18.66716        19.15020         2.34494
C         17.35275        18.39900         2.34068
C         18.63275        20.53245         1.80568
C         17.38566        21.17142         1.60593
C         18.63882        23.26037         0.91104
C         17.37740        22.49714         0.97047
C         18.62333        24.63679         0.61682
C         17.33685        25.37708         0.75002
C         18.59441        27.51684         0.12371
C         17.33832        26.89690         0.51359
C         18.58007        28.88399        -0.39437
C         17.28603        29.59890        -0.58489
C         18.47272        31.89230        -0.18819
C         17.25851        31.07400        -0.63088
C         18.49070        33.26200        -0.84823
C         17.17216        33.92303        -0.87166
C         18.40298        36.03870        -1.86380
C         17.15162        35.35908        -1.48222
C         18.38014        37.43741        -2.18517
C         17.18659        38.26344        -2.13517
C         19.30311         4.23814        -0.63333
C         20.71150         6.31984        -0.57074
C         19.52258         5.62862        -0.23321
C         20.83608         7.68813        -0.34684
C         19.76357         8.45354         0.16958
C         20.92562        10.67386         0.13349
C         19.77891         9.91329         0.21772
C         20.91492        12.09366         0.30669
C         19.77307        12.80685         0.57340
C         21.00991        14.81219         1.52471
C         19.80031        14.30733         0.78355
C         21.01698        16.09586         1.98859
C         19.83834        16.90359         1.97725
C         21.06063        19.01729         1.54938
C         19.98736        18.36352         2.37991
C         21.00360        20.31665         1.16920
C         19.83330        21.13691         1.34959
C         21.06040        23.25503         0.77531
C         19.85934        22.54441         1.00052
C         21.03480        24.59159         0.39127
C         19.82842        25.30733         0.30293
C         21.03284        27.46996        -0.47568
C         19.74929        26.67578        -0.35429
C         21.07354        28.81233        -0.54077
C         19.86885        29.63940        -0.25155
C         20.99343        31.92487        -0.70367
C         19.82002        31.14817        -0.25096
C         20.89940        33.19281        -1.15773
C         19.63261        33.92235        -1.23301
C         20.82590        36.01750        -1.95581
C         19.62143        35.32944        -1.69999
C         20.81849        37.37286        -2.29561
C         19.62628        38.08224        -2.37745
O         11.72979        15.20781         0.38025
O         15.90795        36.56110        -3.17569
O         17.03751        35.10536        -0.03723
O         13.13065        16.38920         3.79871
O          6.04518        23.58618        -0.88530
O         14.12011        31.02866        -2.33595
O         18.23146        11.50178        -0.84343
O         10.61154        31.61041         0.98991
O          9.57116        34.16604        -2.59280
O          1.44045        33.90268         1.38358
O          5.95187        15.10258         3.60783
O          9.18463        26.93148        -1.43600
O         17.37284        26.32052         1.88388
O         15.04834        10.05890         1.87011
O         12.85064        21.28809         3.15005
O         16.68980        22.49838        -0.35561
O         11.37289         8.61578        -3.12065
O          9.87723        17.77495         3.83414
O          1.27746        10.47035         2.29370
O          3.06663        14.11544         3.48046
O         16.28791         7.79128         1.41699
O          4.36632        31.43360         1.86923
O         17.42610         5.65146         0.94266
O         18.01290        29.00411        -1.78394
O         20.02723        30.39015         1.00259
O          7.21460        17.86310         3.87216
O          4.46673        33.98001         1.47794
O          7.89727        11.54658        -1.59611
O         10.67216        20.29314         0.21976
O         17.96353        18.91877         3.60939
O         19.89666        14.86365        -0.58207
H         19.97149        15.83763        -0.49113
O         10.27245         6.10675        -4.97184
H         10.75046         6.95331        -4.82665
O         20.47627        18.38141         3.75130
H         19.67471        18.38268         4.32591
O         15.58078         6.73561        -2.73428
H         15.03215         6.76087        -3.54681
O          3.68654        27.44917         2.42777
H          3.01376        28.09505         2.73289
O         10.84465        10.16058         1.57608
H         11.61435        10.37653         2.14578
O         14.14237        11.37374        -1.32802
H         13.47011        11.95776        -1.73845
O         19.36304        26.36370        -1.74784
H         19.02179        27.19493        -2.15462
O          8.43006        15.34915         4.36885
H          7.47159        15.14113         4.50440
O         18.21915        32.18454         1.21674
H         18.72908        31.52501         1.74398
H          1.28844         4.16975        -4.79949
H         -0.87889         5.16318        -4.06543
H         -0.92672         6.98286        -2.40098
H         -0.84738         7.78976        -0.62983
H         -0.73307         9.19933         1.42504
H         -0.87364        11.92967         2.45375
H         -1.02668        14.39430         2.09434
H         -1.00045        16.31686         1.90698
H         -0.99666        18.72270         1.60406
H         -0.99798        20.55779         1.22507
H         -0.98861        22.93430         0.73919
H         -0.96824        24.78004         0.25537
H         -0.94984        27.19647         0.06703
H         -0.96561        29.04601         0.16150
H         -1.00806        31.47496         0.00679
H         -0.96904        33.28283        -0.77732
H         -0.92631        35.67653        -1.26382
H          0.21853        37.81683        -1.43012
H          3.74807         4.07688        -4.63215
H          2.34913        39.07712        -1.65268
H          6.18700         3.95809        -4.41272
H          4.81048        39.11269        -1.61188
H          8.59722         3.90369        -4.33574
H          7.27553        39.13802        -1.61637
H         11.04975         3.59812        -3.62280
H          9.73238        39.11610        -1.77912
H         13.32012         3.19331        -2.83770
H         12.19155        39.12330        -1.88898
H         15.82048         2.91269        -2.32468
H         14.50111        39.23385        -1.67207
H         18.15415         2.62523        -1.36576
H         17.30809        39.30778        -1.81078
H         20.21649         3.64482        -0.80376
H         21.53180         5.77390        -1.05843
H         21.76066         8.19474        -0.65569
H         21.90143        10.18054         0.01944
H         21.88606        12.60804         0.28886
H         21.92727        14.20850         1.55765
H         21.93588        16.51969         2.41954
H         21.96869        18.43311         1.34053
H         21.86356        20.75069         0.63906
H         22.02956        22.74760         0.87190
H         21.98665        25.09022         0.16278
H         21.96062        26.90980        -0.66708
H         22.03781        29.32194        -0.68996
H         21.97614        31.43345        -0.66360
H         21.82086        33.69097        -1.48581
H         21.79535        35.51335        -1.85811
H         21.77264        37.88907        -2.47108
H         19.64282        39.15692        -2.60724
