         276
 CSIRO Nanostructure Databank - Neutral Graphene Oxide Data Set
C        -11.21199         0.79292         0.08936
C        -10.07377         1.59113         0.70573
C         -8.75844         0.78795         0.74743
C         -7.44378         1.53972         0.63815
C         -6.16080         0.78408         0.44062
C         -4.92420         1.48518        -0.01539
C         -3.69365         0.69723        -0.14779
C         -2.40660         1.44636        -0.01534
C         -1.13424         0.75074        -0.37928
C         -0.10025         1.42586         0.52246
C          1.24768         0.75989         0.39684
C          2.50095         1.42417         0.31676
C          3.72269         0.74796         0.52075
C          4.97429         1.50823         0.64799
C          6.35101         0.74353         0.63861
C          7.50611         1.49546         0.07406
C          8.51223         0.90766        -0.68320
C          9.76360         1.61702        -0.89137
C         10.92557         0.82625        -1.26744
C         -9.94945         3.02930         0.25784
C         -8.74528         3.68514         0.07969
C         -7.53692         2.81054        -0.20706
C         -6.22649         3.57663        -0.36119
C         -4.94040         2.83766        -0.22620
C         -3.70201         3.61262        -0.53477
C         -2.40528         2.86002        -0.53217
C         -1.17531         3.60138        -0.24170
C         -0.13456         2.95390         0.39342
C          0.80555         3.76032         1.13166
C          2.62482         2.85688        -0.11345
C          3.75068         3.65378         0.50156
C          5.03649         2.92790         0.33845
C          6.25644         3.66715         0.60237
C          7.59377         2.93935         0.35653
C          8.71781         3.73710        -0.19797
C          9.85071         2.98309        -0.66873
C         -8.67309         5.10535         0.01504
C         -7.45593         5.84060        -0.08883
C         -6.21475         5.07577        -0.39945
C         -4.90792         5.81552        -0.38722
C         -3.63815         5.05257        -0.04998
C         -2.39618         5.81799        -0.47234
C         -1.11452         5.03034        -0.73099
C         -0.00932         5.83441        -0.06045
C          1.04470         5.18629         0.78467
C          2.36480         5.88349         1.21812
C          3.68511         5.08523         0.95990
C          5.01761         5.90096         0.98856
C          6.16011         5.12933         0.29944
C          7.40219         5.87053        -0.06181
C          8.66028         5.11456        -0.25229
C         -7.39956         7.21704         0.07399
C         -6.11875         7.96597         0.37064
C         -4.86912         7.27042        -0.13216
C         -3.53034         7.89471         0.25120
C         -2.35074         7.17256        -0.38720
C         -1.14288         7.98632        -0.88276
C          0.24506         7.17524        -0.72097
C          1.29551         7.99822         0.00155
C          2.39142         7.36762         0.80131
C          3.72600         8.10598         1.01791
C          4.85547         7.28367         0.29122
C          6.19422         8.01539         0.29385
C          7.36718         7.33697         0.12397
C         -6.04980         9.42491        -0.01082
C         -4.85222        10.05298        -0.10565
C         -3.56011         9.38509        -0.01081
C         -2.38198        10.06517        -0.12009
C         -1.09568         9.39536        -0.26035
C          0.07646        10.07566        -0.13942
C          1.38625         9.42595        -0.55630
C          2.65021        10.12716        -0.12917
C          3.72612         9.51429         0.41968
C          5.02355        10.17586         0.47947
C          6.17860         9.46206         0.42927
C        -11.17241        -0.51822        -0.19970
C         -9.87992        -1.28701        -0.34486
C         -8.75951        -0.68751         0.48651
C         -7.46402        -1.45412         0.40685
C         -6.22038        -0.67199         0.09507
C         -4.97266        -1.39811        -0.30965
C         -3.68694        -0.65980        -0.30617
C         -2.49890        -1.41248        -0.89156
C         -1.15772        -0.71759        -0.58769
C         -0.00968        -1.47324         0.00443
C          1.26648        -0.69045         0.10385
C          2.54749        -1.45512         0.27564
C          3.74586        -0.72180         0.87342
C          5.01638        -1.45053         0.40279
C          6.32548        -0.73940         0.54297
C          7.46710        -1.46715         0.72231
C          8.45270        -0.45547        -1.31571
C          9.68885        -1.31028        -1.16343
C         10.91500        -0.53594        -1.32338
C         -9.94929        -2.80401        -0.24077
C         -8.82417        -3.55369        -0.19252
C         -7.49944        -2.90146         0.05368
C         -6.27865        -3.51652        -0.63050
C         -4.95411        -2.90581        -0.06730
C         -3.65620        -3.60322        -0.48228
C         -2.49760        -2.90622        -0.58511
C         -1.15575        -3.57310        -0.89101
C         -0.01690        -2.95945        -0.06627
C          1.31335        -3.69189        -0.19882
C          2.45053        -2.94778         0.49590
C          3.70657        -3.69968         0.78671
C          4.98471        -2.94515         0.53833
C          6.27362        -3.69722         0.55628
C          7.52976        -2.92647         0.43083
C          8.45898        -3.50214        -0.67500
C          9.70305        -2.64984        -0.87796
C         -8.85675        -5.07289        -0.35055
C         -7.51786        -5.75520        -0.08637
C         -6.28076        -5.04326        -0.54166
C         -4.98600        -5.77446        -0.50759
C         -3.65283        -5.10964        -0.23478
C         -2.49417        -5.88655        -0.86933
C         -1.19497        -5.12599        -0.85869
C          0.07019        -5.88423        -0.48684
C          1.18149        -5.15223         0.30210
C          2.50088        -5.91007         0.22878
C          3.77623        -5.23163         0.77567
C          5.08342        -5.81040         0.25933
C          6.25198        -5.11314         0.11218
C          7.56349        -5.76360        -0.10906
C          8.64361        -4.98690        -0.39828
C         -7.43844        -6.98155         0.47951
C         -6.10114        -7.62063         0.83790
C         -5.04214        -7.24254        -0.17400
C         -3.84433        -8.09297        -0.42131
C         -2.49973        -7.46146        -0.81768
C         -1.39350        -7.95543         0.14565
C         -0.03829        -7.34145        -0.17463
C          1.14729        -8.00497         0.51182
C          2.42898        -7.26547         0.13774
C          3.47275        -8.17187        -0.40052
C          5.36654        -7.24926         0.51909
C          6.34078        -7.95518        -0.40655
C          7.69657        -7.29604         0.03900
C         -6.09922        -9.10818         1.10675
C         -5.06082        -9.91821         0.84552
C         -3.85802        -9.56586        -0.00535
C         -2.52861       -10.14216         0.41176
C         -1.33308        -9.47368         0.21425
C         -0.08828       -10.15513         0.17614
C          1.17555        -9.50201         0.19736
C          2.36505       -10.19679         0.02552
C          3.67293        -9.49398         0.34866
C          5.00443       -10.12238        -0.03332
C          6.15627        -9.46633        -0.29457
O         -0.79972         1.14655         1.80782
O         -5.87774        -0.85970        -1.31889
O         -1.30003         8.24464        -2.24631
O          4.87726        -2.26027        -0.78633
O         -3.06118         3.23973        -1.78362
O          0.37860        -6.89044        -1.49522
O          5.77542         1.19544         1.86909
O         -0.78599         0.23495        -1.65479
O         -7.34850        -2.47472         1.44565
O         -8.92256        -0.18700         1.83822
O         -4.92614        -7.98367        -1.41071
O          3.67425         3.99690         1.95558
O          2.80181        -3.27597         1.86513
O          7.24956        -3.64193         1.68056
O         -6.29669         4.30308        -1.64847
O         -6.55624         1.33502         1.75839
O          4.01379         8.19876         2.37367
O         -0.14580         5.86568         1.37656
O         -0.35024        -2.29683         1.18060
O          7.51813        -0.77098        -2.04455
O          7.14830         3.32198         1.69598
O          1.98261         3.30869        -1.05347
O         -5.65444        -5.55492        -1.78152
O         -2.19058         1.58958         1.48814
O          6.36605         5.41226        -1.10978
O         -1.88973        -5.48764        -2.10746
O         -4.86681         6.77414        -1.49293
O          5.21574        -7.66748         1.67341
O          1.25245         8.02996         1.45433
O          3.77057        -8.07394        -1.59375
O         -0.82618        -3.18367        -2.22011
O          2.18444        -1.00384        -1.03315
O        -10.50006         1.77312         2.09582
H        -10.20420         0.96576         2.58117
O          3.69914        -0.81799         2.31374
H          4.38562        -0.21203         2.67593
O         -2.69385        -1.36035        -2.31696
H         -2.00534        -1.98856        -2.68957
O         -4.01631       -10.34371        -1.24300
H         -3.66329        -9.79063        -1.97721
O         -4.97844        -3.11080         1.37491
H         -4.26184        -2.57867         1.78094
O          3.70111        -5.57835         2.18671
H          4.15125        -6.45634         2.31871
O          7.68536        -3.46332        -1.89365
H          7.48259        -2.52318        -2.14013
O          1.64853        -3.73622        -1.58915
H          0.82358        -3.53743        -2.13123
O         -9.42781        -1.02139        -1.71151
H        -10.04110        -1.46310        -2.33488
O         -3.61249         4.93133         1.39935
H         -3.42129         5.83666         1.76728
O         -6.41969        -3.18077        -2.01329
H         -5.90123        -3.83796        -2.53422
O          0.74222        -5.13993         1.68529
H          1.39254        -4.57763         2.18209
O          0.75410         6.90143        -2.02215
H          0.03716         7.20269        -2.65143
O          1.40393         9.43761        -1.99773
H          0.51278         9.14958        -2.31994
O          6.26348        -7.56509        -1.78268
H          5.37954        -7.82087        -2.14426
O         -2.18834        -7.97353        -2.11689
H         -1.75202        -7.23613        -2.61644
O         -5.67674        -6.97856         2.08179
H         -6.30293        -7.23912         2.78912
O          5.42710         6.08972         2.33040
H          4.87588         6.84025         2.71353
O          4.37315         7.09644        -1.03769
H          5.08799         6.66386        -1.56771
O          8.75066        -7.78664        -0.76593
H          8.45029        -7.70854        -1.69809
O         -7.81456         2.23075        -1.51574
H         -7.55185         2.89992        -2.19012
O         -0.84791         4.88835        -2.13412
H         -1.62815         4.44951        -2.54631
O          2.28048         5.88345         2.66466
H          1.82755         6.71994         2.92432
O         -3.34550         7.68620         1.68773
H         -4.16903         8.00426         2.13331
O          1.01639        -7.87781         1.95460
H          0.98368        -6.89913         2.15043
O         -3.41135        -5.29603         1.18472
H         -4.14024        -4.84734         1.67612
O         -9.88764        -5.63156         0.46434
H         -9.75845        -5.31609         1.38210
O          3.63063        -9.34803         1.78372
H          2.81134        -8.86178         2.03894
O         -6.02562         7.92074         1.84930
H         -6.75405         8.46938         2.21126
O          1.32167         3.26726         2.20590
H          2.02989         3.87389         2.59520
O         -1.74463        -7.49311         1.46659
H         -1.00592        -7.72899         2.07392
O          8.59191        -0.90620         1.25270
H          9.24918        -1.60211         1.45398
H         11.85377        -1.08314        -1.49763
H         11.87684         1.36178        -1.40244
H         10.78770         3.51346        -0.89594
H          9.54229         5.67152        -0.60555
H          8.32177         7.88498         0.11196
H          7.14882         9.98177         0.43253
H          5.05812        11.27636         0.48675
H          2.77650        11.15460        -0.51076
H          0.07250        11.11704         0.22108
H         -2.39612        11.16567        -0.19401
H         -4.83305        11.13211        -0.32697
H         -6.98460         9.99382        -0.12776
H         -8.34163         7.75576         0.27215
H         -9.60330         5.67072         0.18585
H        -10.86864         3.63004         0.35561
H        -12.18561         1.30897         0.07506
H        -12.09615        -1.02349        -0.52758
H        -10.92484        -3.29593        -0.38797
H         -9.13455        -5.29686        -1.41774
H         -8.36813        -7.47867         0.80324
H         -6.95707        -9.50979         1.67223
H         -5.12821       -10.97638         1.14648
H         -2.51046       -11.23355         0.56976
H         -0.10401       -11.25593         0.12506
H          2.34436       -11.26835        -0.23248
H          5.03373       -11.22514        -0.04049
H          7.04263       -10.07577        -0.53783
H          7.91989        -7.54791         1.10728
H          9.62747        -5.45537        -0.55620
H         10.68620        -3.14672        -0.80187
