         648
 CSIRO Nanostructure Databank - Neutral Graphene Oxide Data Set
C          5.87898        31.81908         0.08449
C          5.64215        33.14900        -0.15842
C          8.33925        27.56370         0.51976
C          8.34077        28.96760         0.45894
C          7.13630        29.73937         0.39923
C          8.40267        31.83393         0.42402
C          7.13087        31.13631         0.38236
C          8.52628        33.20606         0.66657
C          6.55314        34.22662         0.16129
C          7.73074        36.38372        -0.12822
C          6.63344        35.47811        -0.41072
C          8.07501        37.54937        -0.74760
C         10.86877        23.28954         0.36003
C         10.86268        24.68577         0.60907
C          9.61813        25.42020         0.58416
C         10.80583        27.57573         0.76165
C          9.54853        26.80897         0.61987
C         10.82222        28.98272         0.33410
C          9.59733        29.67992         0.31665
C         10.84666        31.76325        -0.05083
C          9.61741        31.09236         0.20584
C         10.86905        33.21041        -0.08707
C          9.70885        33.92799         0.35658
C         10.72654        36.07957        -0.35197
C          9.71053        35.34309         0.28742
C         10.64008        37.50977        -0.53100
C          9.36821        38.20928        -0.49314
C         10.58108        40.35700        -0.28126
C          9.38130        39.58645        -0.36752
C         10.43736        41.65597         0.26518
C         13.34948        18.94150         0.03126
C         13.29517        20.33367         0.60323
C         12.07961        21.14186         0.22235
C         13.31092        23.17804         0.94833
C         12.05634        22.50272         0.43375
C         13.35273        24.66844         0.64374
C         12.10638        25.37298         0.73117
C         13.32726        27.56891         0.35554
C         12.11979        26.84419         0.81165
C         13.27846        28.87516        -0.04790
C         12.03377        29.62520        -0.00072
C         13.25295        31.70110        -0.67646
C         12.03184        31.01985        -0.26732
C         13.15978        33.15042        -0.96940
C         11.99594        33.92170        -0.48410
C         13.10064        36.06963        -1.00315
C         11.95960        35.36282        -0.64456
C         13.02441        37.52787        -1.39820
C         11.82332        38.26968        -0.78078
C         13.10184        40.37161        -0.58169
C         11.82932        39.68546        -0.64614
C         13.25358        41.74804        -0.51659
C         11.40405        42.68554         0.14755
C         13.02617        44.42930         0.79507
C         11.72583        43.78111         0.92626
C         13.10168        45.80456         0.95093
C         15.76624        14.77417        -0.22758
C         15.78106        16.11521        -0.42905
C         14.52261        16.88530        -0.78180
C         15.79916        19.00577        -0.16199
C         14.52294        18.30930        -0.24968
C         15.81686        20.38169         0.11537
C         14.57948        21.10246         0.38365
C         15.85353        23.22265         0.79137
C         14.58165        22.44723         0.58715
C         15.79262        24.56549         0.04892
C         14.54013        25.33606         0.41678
C         15.79508        27.48312        -0.15482
C         14.62750        26.84034         0.56410
C         15.79532        28.96324        -0.28748
C         14.46418        29.51746        -0.74447
C         15.72337        31.67825        -1.16294
C         14.44224        31.02541        -0.78135
C         15.72899        33.19409        -1.40730
C         14.41511        33.91034        -1.28690
C         15.68715        36.07417        -0.86369
C         14.39528        35.35724        -0.93042
C         15.71687        37.51077        -1.32298
C         14.38015        38.26426        -1.26458
C         15.63534        40.32616        -0.30770
C         14.38941        39.66804        -0.77412
C         15.62935        41.63675         0.14272
C         14.38922        42.40381         0.09023
C         15.47030        44.27064         1.37450
C         14.28060        43.67734         0.63385
C         15.51548        45.77113         1.23617
C         14.36345        46.50548         0.94423
C         15.64590        48.56071         0.48489
C         14.43077        47.88628         0.55698
C         15.82518        49.82863        -0.15171
C         18.26365        10.54674         0.69698
C         18.23144        11.86936         0.18441
C         17.04768        12.58523         0.18405
C         18.22856        14.68668        -0.55821
C         17.04799        14.08498         0.17379
C         18.27512        16.16598        -0.52730
C         17.04711        16.85525        -0.42061
C         18.27953        18.94896        -0.39720
C         17.03623        18.27175        -0.35549
C         18.26805        20.42701        -0.35375
C         17.04357        21.12091         0.07675
C         18.31639        23.22422         0.38973
C         17.09948        22.48245         0.37673
C         18.26837        24.67068         0.45684
C         17.08377        25.33227         0.26035
C         18.34885        27.52261        -0.04474
C         17.09210        26.75838        -0.09334
C         18.28125        29.03216         0.04634
C         16.97012        29.66540        -0.37693
C         18.20203        31.79124        -0.87570
C         16.99869        31.05619        -0.77442
C         18.20264        33.21545        -1.12589
C         16.98797        33.91987        -1.23348
C         18.14674        36.06465        -1.05579
C         16.97588        35.35453        -1.07819
C         18.17023        37.46810        -0.51039
C         16.87294        38.23133        -0.68038
C         18.13010        40.26481        -0.12456
C         16.86550        39.56441        -0.36248
C         18.06995        41.59729         0.41924
C         16.86085        42.26910         0.60224
C         18.00033        44.30253         1.41423
C         16.82310        43.62935         1.09328
C         18.03985        45.73638         1.63803
C         16.75028        46.46742         1.54736
C         18.16597        48.46128         0.91113
C         16.79829        47.94448         1.16144
C         18.29434        49.76646         0.20529
C         17.06465        50.46656        -0.24210
C         18.43981        52.46883        -0.72250
C         17.21457        51.78268        -0.75007
C         18.51431        53.82933        -1.12737
C         20.74358         6.75681         2.67104
C         20.73336         8.25086         2.49692
C         19.49898         8.74395         1.79813
C         20.74400        10.65072         0.83418
C         19.48613         9.93542         1.08642
C         20.76462        11.88419         0.21166
C         19.51028        12.40222        -0.45263
C         20.78590        14.66701        -0.69349
C         19.50219        13.91723        -0.68904
C         20.79000        16.11567        -0.77673
C         19.50953        16.84037        -0.65602
C         20.78712        18.95049        -0.34693
C         19.49062        18.25283        -0.56033
C         20.81969        20.40577        -0.07335
C         19.56138        21.17474        -0.21739
C         20.80944        23.21133         0.37221
C         19.56888        22.57212         0.23319
C         20.83765        24.68030         0.56629
C         19.53637        25.43404         0.53993
C         20.81852        27.54926        -0.01556
C         19.53874        26.86783         0.14799
C         20.78514        28.95538        -0.51386
C         19.47432        29.67808        -0.62003
C         20.68729        31.84879        -0.79434
C         19.47913        31.14794        -0.72849
C         20.67120        33.28693        -0.97206
C         19.45152        33.93050        -1.15222
C         20.68891        36.14352        -1.31637
C         19.40138        35.38453        -1.55662
C         20.60712        37.62739        -1.40105
C         19.33039        38.30712        -1.00167
C         20.58206        40.55833        -0.63240
C         19.33566        39.70273        -0.49684
C         20.61924        41.67195         0.40025
C         19.33334        42.15618         0.91307
C         20.56383        44.29937         1.56186
C         19.28764        43.58378         1.47059
C         20.50513        45.69071         2.05085
C         19.21818        46.41277         1.87423
C         20.48296        48.72037         2.02561
C         19.24058        47.90640         1.81204
C         20.49167        50.08572         1.36470
C         19.50701        50.56165         0.47217
C         20.80757        52.60086         0.05980
C         19.60577        51.86119        -0.07709
C         20.98132        53.83081        -0.78138
C         19.70195        54.57256        -1.04755
C         20.91810        56.72780        -1.08370
C         19.73686        55.96439        -1.25327
C         20.91395        58.13748        -1.16284
C         23.14356         4.04150         3.50429
C         21.94004         4.64731         3.11180
C         23.17789         6.63000         2.26455
C         21.90372         6.00998         2.68685
C         23.24463         8.07764         2.03000
C         21.99319         8.80322         1.87625
C         23.27908        10.52185         0.62578
C         21.98044         9.99965         1.20356
C         23.23593        11.99229         0.27922
C         22.01175        12.59689        -0.01091
C         23.25440        14.60053        -0.79558
C         21.97321        13.96029        -0.49696
C         23.27726        16.14243        -0.99334
C         21.99741        16.82159        -0.80506
C         23.30554        18.98933        -0.37314
C         22.03965        18.33008        -0.91030
C         23.31212        20.37888        -0.08141
C         22.09183        21.15563        -0.06987
C         23.28628        23.27401         0.69785
C         22.05535        22.50901         0.23592
C         23.34523        24.63569        -0.00553
C         22.04323        25.38530         0.02312
C         23.25960        27.57191        -0.42042
C         22.00487        26.86107        -0.05835
C         23.27057        29.05538        -0.06317
C         22.00338        29.77568        -0.47094
C         23.19392        31.96239        -0.51227
C         21.95290        31.14289        -0.62125
C         23.13818        33.38292        -0.91853
C         21.93031        34.03349        -1.07187
C         23.17448        36.19018        -1.71196
C         21.88620        35.48663        -1.28899
C         23.17896        37.72355        -1.52406
C         21.86699        38.43986        -1.33062
C         23.12081        40.44651        -0.51269
C         21.85805        39.74704        -0.66856
C         23.08542        41.78309         0.24653
C         21.78583        42.30837         0.75877
C         23.01916        44.33370         1.63603
C         21.77372        43.62004         1.41700
C         23.04683        45.71964         1.87113
C         21.80257        46.45606         2.25748
C         23.11028        48.64856         2.05968
C         21.81526        48.00041         2.53952
C         23.28083        49.99095         2.27287
C         21.46821        51.01993         1.73074
C         23.09840        52.86724         1.16623
C         21.79088        52.15698         0.96479
C         23.30295        54.02558         0.22821
C         22.10570        54.71082        -0.33686
C         23.31696        56.88538        -0.24921
C         22.12992        56.03583        -0.64895
C         23.41224        58.18608        -1.06886
C         22.08673        58.91974        -1.02784
C         23.31292        61.04062        -0.98750
C         22.09252        60.30985        -1.06198
C         24.37415         4.68007         3.43146
C         25.70858         6.76488         2.74445
C         24.53184         5.91822         2.68533
C         25.71247         8.05850         2.19411
C         24.45790         8.70645         1.85673
C         25.74231        10.73953         1.06824
C         24.43388        10.19251         1.56865
C         25.75793        11.97919         0.39988
C         24.49702        12.66481         0.08346
C         25.75563        14.65614        -0.79883
C         24.50612        13.96005        -0.41001
C         25.77998        16.14963        -0.71067
C         24.55269        16.84641        -0.70573
C         25.73712        18.86883         0.03502
C         24.52011        18.23619        -0.37108
C         25.59977        20.16813         0.59220
C         24.50893        21.01244         0.38326
C         25.91060        23.28148         0.39882
C         24.60508        22.48387         0.65060
C         25.83527        24.72924        -0.01172
C         24.62138        25.37743        -0.12700
C         25.85415        27.56282        -0.44119
C         24.57423        26.81779        -0.46913
C         25.81180        29.04041        -0.55146
C         24.50591        29.77573        -0.55834
C         25.79695        31.92731        -0.80560
C         24.52536        31.26737        -0.39616
C         25.74572        33.31829        -1.26373
C         24.41320        34.07708        -1.24026
C         25.69163        36.20555        -1.44943
C         24.42188        35.53087        -1.13256
C         25.68093        37.72365        -1.38406
C         24.41746        38.41547        -1.07011
C         25.64593        40.36907        -0.15848
C         24.40805        39.70218        -0.57032
C         25.62454        41.61587         0.51947
C         24.32758        42.18731         0.94479
C         25.57126        44.29535         1.69672
C         24.29256        43.58894         1.60196
C         25.52948        45.70273         1.81194
C         24.29853        46.39983         1.83780
C         25.64578        48.62071         1.71656
C         24.30278        47.86981         1.69141
C         25.64236        50.07565         1.93058
C         24.45631        50.77133         1.98672
C         25.69787        52.93533         1.50100
C         24.38352        52.24830         1.75578
C         25.77840        54.18805         0.95706
C         24.60832        54.73373         0.22428
C         25.74218        56.98747         0.46281
C         24.68193        56.15680        -0.29678
C         25.72429        58.41191        -0.05013
C         24.61208        58.99535        -0.59126
C         24.52520        60.42625        -0.77281
C         26.91658         8.79219         2.03757
C         28.18584        10.71327         1.12881
C         26.95503        10.07604         1.41560
C         28.22487        11.96922         0.49108
C         26.99842        12.58110         0.08074
C         28.33709        14.62112        -0.67106
C         27.04145        13.87012        -0.63442
C         28.30204        16.14004        -0.65246
C         27.00905        16.84773        -0.50178
C         28.28043        18.95793        -0.16880
C         27.01748        18.22646        -0.14370
C         28.35442        20.38741        -0.22394
C         27.39838        21.21822         0.36749
C         28.26274        23.29371        -0.47311
C         27.17814        22.58746         0.03352
C         28.26518        24.72142        -0.49314
C         27.05716        25.43263        -0.36180
C         28.30674        27.52020        -0.96136
C         27.05198        26.86203        -0.62286
C         28.42777        28.80658        -1.60233
C         26.95731        29.91368        -0.09613
C         28.24051        31.86149        -1.23548
C         27.00996        31.26045        -0.75161
C         28.21820        33.30396        -1.38248
C         27.04151        34.02783        -1.27324
C         28.21423        36.23970        -1.79696
C         27.02327        35.53402        -1.10124
C         28.25397        37.72294        -1.38041
C         26.96352        38.47780        -1.19246
C         28.10341        40.35022        -0.01278
C         26.90777        39.74230        -0.40558
C         28.08159        41.62111         0.65747
C         26.82819        42.26359         0.92298
C         28.04697        44.22440         1.83942
C         26.81710        43.58171         1.53337
C         28.03214        45.60554         2.38699
C         26.76920        46.41801         2.20928
C         28.08121        48.56432         2.17982
C         26.87999        47.88251         2.04702
C         28.15398        49.98722         2.04190
C         26.91921        50.76448         2.12929
C         28.24790        52.86032         1.51869
C         26.95104        52.27429         1.92653
C         28.26749        54.15866         1.01155
C         27.05584        54.89986         0.79589
C         27.05360        56.23281         0.42306
C         29.47738        12.64039         0.29669
C         30.76952        14.67965        -0.19185
C         29.56377        13.95240        -0.18226
C         30.80755        16.10215        -0.29205
C         29.55487        16.84145        -0.31695
C         30.78801        18.96691        -0.07098
C         29.52064        18.22480        -0.24880
C         30.84183        20.36253        -0.56414
C         29.53725        21.07819        -0.78286
C         30.70014        23.25548        -0.13087
C         29.54275        22.60842        -0.90541
C         30.73800        24.73821        -0.24421
C         29.52645        25.42556        -0.50966
C         30.76398        27.53933        -0.67287
C         29.53338        26.84040        -0.64771
C         30.74468        29.05737        -0.65942
C         29.52990        29.67472        -1.34497
C         30.72957        31.84447        -1.51143
C         29.45807        31.10962        -1.41163
C         30.73990        33.21720        -1.60697
C         29.47423        34.00426        -1.90153
C         30.63042        36.14078        -1.10931
C         29.50247        35.48376        -1.50608
C         30.64176        37.56067        -0.71630
C         29.47225        38.29056        -0.76928
C         30.66679        40.26203         0.27570
C         29.40578        39.70827        -0.35760
C         30.52765        41.44397         1.16986
C         29.28785        42.23746         1.10888
C         30.56533        44.20055         1.89766
C         29.29094        43.54503         1.65005
C         30.60051        45.63149         2.28328
C         29.33160        46.35279         2.56887
C         30.59129        48.53704         2.08268
C         29.34176        47.89028         2.68082
C         30.59558        49.88697         1.82876
C         29.38627        50.67648         1.89275
C         29.41724        52.06190         1.62931
C         32.04169        16.77167        -0.32277
C         33.33931        19.00101        -0.47734
C         32.15398        18.20725        -0.14868
C         33.31498        20.40731        -0.35176
C         32.08874        21.10277        -0.35095
C         33.24934        23.25659         0.33053
C         31.98136        22.50163         0.08141
C         33.22415        24.77894         0.18605
C         31.95117        25.44148        -0.21035
C         33.24333        27.42604        -1.02846
C         31.96133        26.82637        -0.52298
C         33.20719        28.94100        -1.07163
C         32.05095        29.64722        -1.14250
C         33.31124        31.71961        -1.78293
C         31.97075        30.98789        -1.86070
C         33.30467        33.30865        -1.64585
C         31.98597        34.01397        -1.67741
C         33.14194        36.08825        -0.64553
C         31.94733        35.46263        -1.25216
C         33.11016        37.37272        -0.17599
C         31.87130        38.15533        -0.19294
C         33.06516        39.92057         1.16011
C         31.86448        39.41208         0.37241
C         33.09580        41.42678         1.29187
C         31.82940        42.09662         1.61952
C         33.03789        44.28596         1.79826
C         31.78813        43.55130         1.80908
C         33.04416        45.65877         1.81778
C         31.83280        46.40369         1.99339
C         31.79812        47.77706         1.92400
C         34.53382        21.20373        -0.25882
C         35.77821        23.26295         0.32648
C         34.51982        22.52710         0.08866
C         35.77188        24.81226         0.27298
C         34.50154        25.48769        -0.04002
C         35.76429        27.47597        -0.71474
C         34.51811        26.78979        -0.51307
C         35.76049        28.86327        -1.00108
C         34.51011        29.52805        -1.55715
C         35.63441        31.71376        -0.81386
C         34.48983        31.01125        -1.36218
C         35.63763        33.20415        -0.77822
C         34.44799        33.97254        -1.10523
C         35.64914        35.99944        -0.31446
C         34.33955        35.23740        -0.30818
C         35.62340        37.37148        -0.04197
C         34.36317        38.03677         0.19263
C         35.58229        40.09376         0.73415
C         34.35597        39.34421         0.64257
C         35.52843        41.46430         1.09785
C         34.30155        42.11656         1.34477
C         34.36507        43.56466         1.77198
C         37.02091        25.49240        -0.02006
C         38.25116        27.52825        -0.67019
C         37.02508        26.80846        -0.48421
C         38.23124        28.90570        -0.85795
C         36.96461        29.56818        -0.94805
C         38.10293        31.79069        -1.37634
C         36.98919        31.03990        -0.63769
C         38.12264        33.25284        -0.95436
C         36.92916        33.91939        -0.71319
C         38.12505        36.05766        -0.43644
C         36.88775        35.32898        -0.48245
C         38.08749        37.43840        -0.15720
C         36.86047        38.10235         0.07115
C         36.80645        39.47434         0.42080
C         39.44117        29.71525        -0.94563
C         40.62538        31.87349        -1.16641
C         39.41990        31.07205        -1.14295
C         40.59710        33.23451        -1.08271
C         39.35846        33.97673        -0.90897
C         39.34620        35.34633        -0.64818
O         31.50731        18.69782         1.11929
O         23.20742        41.78381        -1.19491
O         26.36788        13.95279        -1.93210
O         25.45593        22.93161         1.75127
O         18.92786        21.02609        -1.53721
O         24.21243        42.32529         2.37709
O         26.91045        51.71262         3.26733
O         33.54455        32.62008        -2.91409
O         28.48436        15.37067        -1.90360
O         11.50604        27.37245         2.05171
O         18.54268        48.47571        -0.49867
O         22.57156        38.44071        -2.64638
O         16.59038        47.55176         2.53471
O         24.98318        48.25990         0.44130
O         15.04570        35.71778         0.39897
O         14.47008        39.34124        -2.26366
O          7.44532        33.91070         1.20429
O         16.28537        26.88684        -1.39405
O         18.62276        14.17566        -1.86441
O         21.48320        53.32697        -2.16471
O         25.12698        29.44589        -1.81861
O         20.85413        19.41569         1.04354
O         23.32225        15.22601        -2.12198
O         23.48066        53.08381         2.55226
O         30.99626        41.28564         2.54684
O         22.23693        50.71672         2.85030
O         24.27467        53.75743        -0.85657
O         27.64156        29.62219         0.88074
O         35.28560        32.40031         0.51009
O         30.10537        45.78627         3.68426
O         12.23195        42.55434        -0.99293
O         20.29126        25.21314         1.79965
O         30.20037        20.44585        -1.91728
O         30.96452        22.67450         1.16888
O         15.74735        32.24635        -2.51556
O         33.27194        27.05034        -2.41338
O         27.73635        38.61162        -2.43562
O         19.66680        38.14292        -2.41829
O         23.92833         5.85228         1.33442
O         22.51863        24.73125        -1.21047
O         33.19163        24.10743         1.49692
O         27.16853        45.87000         3.53282
O         19.28131        42.40737         2.35150
O         23.78588        27.17692        -1.70778
O         20.02328        29.01120        -1.78601
O         25.64487        37.02007        -2.67688
O         21.12653        45.80072         3.38088
O         23.88996        31.77443         0.82360
O         30.30688        40.60284        -1.10745
O         32.07856        35.07533        -2.68303
O         13.50226        33.55757        -2.35394
O         24.98373        33.53436        -2.52020
O         26.64393        20.64542         1.39225
O          8.63419        35.99174         0.89104
O         19.44032        48.63586         3.06137
O         12.72503        37.50666        -2.82542
H         13.01896        38.37667        -3.18335
O         13.35309        16.18091        -0.36839
H         13.34065        16.14901         0.60967
O         20.68256         8.80051         3.87644
H         20.77854         9.77439         3.80301
O         30.61796        29.45513         0.74861
H         29.67002        29.37064         1.00846
O         20.46128        41.22234        -1.93731
H         20.63609        40.54441        -2.62725
O         15.22397        44.00438         2.80103
H         15.46254        43.07010         2.97884
O         34.57142        29.25679        -2.98657
H         34.09067        28.37815        -3.10479
O         25.17276        56.04999        -1.65296
H         24.85572        55.18002        -1.99754
O         32.92372        39.39042         2.52262
H         32.15988        39.86553         2.93260
O         23.01568        23.56684         2.09159
H         23.87299        23.52424         2.57653
O         19.54972        11.78003        -1.77316
H         19.00512        12.35200        -2.36372
O         37.80113        31.75011        -2.79135
H         38.52765        32.19296        -3.27672
O         14.95732        27.05859         1.98450
H         14.17949        26.78331         2.51794
O         21.99642        18.62558        -2.34229
H         22.64211        18.04462        -2.79827
O         15.96517        23.48974         2.21515
H         15.04862        23.51961         2.58939
O         17.29642        14.45719         1.58319
H         16.54858        14.11444         2.11659
O         14.32525        29.09171        -2.13926
H         14.98954        29.57871        -2.67350
O         18.39866        37.31897         0.93070
H         17.62822        36.84528         1.31168
O         35.84646        24.01431         1.52664
O         23.53177         9.81503        -0.61709
H         22.80678        10.02769        -1.24186
O         23.21253        35.92377        -3.13207
H         24.04123        36.32812        -3.48234
O         13.19981        20.18803         2.08492
H         13.98334        19.67123         2.37259
O         27.22325        35.78318         0.32726
H         26.66142        35.16227         0.83764
O         23.34376        29.09725         1.38854
H         23.39365        30.04927         1.65080
O         29.38196        48.21084         4.09389
H         29.81266        47.44821         4.54681
O         28.03090        36.18093        -3.22116
H         27.61553        37.03579        -3.49905
O         35.31231        44.28439         0.97150
H         35.02507        44.23813         0.03680
O         31.74644        30.64797        -3.25095
H         32.14471        31.36567        -3.79431
O         23.59219        57.91299        -2.47672
H         24.40055        57.34873        -2.56253
O         13.23491        23.09196         2.41959
H         13.10378        22.13112         2.62352
O         15.69093        24.25309        -1.36458
H         15.80515        25.10548        -1.85248
O         34.07970        34.82257         1.08341
H         34.58348        33.99019         1.24895
O         19.26177        35.38591        -3.01657
H         19.27206        36.32968        -3.30237
O         37.37086        31.06596         0.76180
H         36.65505        31.54850         1.24566
O         16.07063        37.39694        -2.72839
H         15.84838        38.26259        -3.14401
O         24.15421        10.87767         2.82977
H         24.88257        10.66817         3.45151
O         29.72966        22.94444        -2.29735
H         30.06595        22.13354        -2.74890
O         27.54991        29.19727        -2.54438
H         26.86151        28.52122        -2.71347
O         23.06264        57.24490         1.12926
H         22.26262        57.81140         1.14938
O         18.43762        29.35611         1.46583
H         17.72034        28.91174         1.96621
O         21.82674        48.15870         3.95817
H         20.93631        47.90703         4.29246
O         29.37449        33.90453        -3.34721
H         28.81267        34.65360        -3.66636
O         20.50557        52.42179        -2.68704
H         19.94687        52.99281        -3.26914
O         25.43403        57.09558         1.87883
H         25.32770        56.19394         2.24918
H          5.04070        31.13491        -0.13027
H          4.67103        33.42170        -0.60126
H          7.37848        27.02681         0.50921
H          6.17543        29.20300         0.35726
H          5.92689        35.75379        -1.20630
H          7.38507        38.03893        -1.45101
H          9.91712        22.78819         0.12579
H          8.68763        24.84207         0.47570
H          8.42253        40.12099        -0.29819
H          9.51811        41.86035         0.83614
H         12.40506        18.38426        -0.07235
H         11.16455        20.61269        -0.08602
H         11.02910        44.16753         1.68488
H         12.17518        46.39282         1.02017
H         14.81754        14.21647        -0.25653
H         14.47587        16.94863        -1.90525
H         13.51978        48.36130         0.16411
H         14.93692        50.33571        -0.55810
H         17.31738        10.07056         0.99898
H         16.14004        12.08971         0.57009
H         16.32459        52.30273        -1.13596
H         17.58803        54.33427        -1.44337
H         19.78797         6.26855         2.91976
H         18.54697         8.23210         2.00687
H         18.79827        56.48669        -1.49522
H         19.95376        58.64870        -1.33780
H         23.09262         3.05466         3.98722
H         20.98987         4.13064         3.30787
H         23.26955        62.13690        -1.05954
H         21.14274        60.86029        -1.13879
H         25.24592         4.25785         3.95156
H         26.61967         6.37729         3.22383
H         26.57720        59.05434         0.22639
H         25.43229        61.03459        -0.63644
H         27.86859         8.31204         2.30854
H         29.12786        10.22518         1.41791
H         29.22884        54.63045         0.75948
H         28.00720        56.77201         0.31701
H         30.39392        12.13845         0.64066
H         31.70764        14.14888         0.02899
H         31.53112        50.38152         1.52438
H         30.38803        52.52904         1.40424
H         32.95261        16.19396        -0.53913
H         34.28473        18.48221        -0.69055
H         33.99839        46.19779         1.72626
H         32.72386        48.32292         1.68324
H         35.50094        20.69331        -0.39054
H         36.72374        22.74579         0.03854
H         36.45940        42.04435         1.16977
H         34.77543        43.57993         2.82104
H         37.96417        24.99721         0.25217
H         39.20572        26.98938        -0.57835
H         39.02783        38.00528        -0.08732
H         37.73823        40.05599         0.48170
H         40.40888        29.20298        -0.82208
H         41.59426        31.35170        -1.20317
H         41.54073        33.80008        -1.07482
H         40.29760        35.89729        -0.59806
