         614
 CSIRO Nanostructure Databank - Neutral Graphene Oxide Data Set
C         23.00259        69.77807         0.15555
C         22.97399        71.15039         0.39734
C         21.86591        71.81047         0.98519
C         23.07044        73.93947         1.12617
C         21.91685        73.17953         1.29274
C         25.40612        65.54087        -0.50087
C         25.34157        66.91573        -0.68775
C         24.16818        67.66716        -0.41875
C         25.34143        69.82427        -0.62648
C         24.16855        69.09188        -0.33291
C         25.37870        71.28439        -0.47491
C         24.14010        71.98549         0.02841
C         25.47999        74.00216         0.59330
C         24.26843        73.35110         0.60770
C         27.93624        61.25720        -1.02393
C         27.87408        62.67908        -0.99307
C         26.71484        63.35081        -0.68115
C         27.92246        65.53066        -0.78854
C         26.70416        64.80662        -0.29959
C         27.88020        66.95815        -1.13806
C         26.54164        67.65404        -1.17429
C         27.86657        69.91537        -1.16689
C         26.53723        69.15191        -1.14401
C         27.83991        71.31804        -0.65981
C         26.69171        71.95183        -0.31237
C         27.96751        74.10380         0.04532
C         26.78179        73.26073         0.44407
C         30.42409        57.03747        -0.80239
C         30.40965        58.44680        -0.82738
C         29.19443        59.16556        -0.97657
C         30.43141        61.31173        -1.01015
C         29.16636        60.56881        -1.01689
C         30.41783        62.68557        -1.10116
C         29.12980        63.41771        -1.39146
C         30.35003        65.55356        -0.84918
C         29.15042        64.85345        -0.92334
C         30.29659        66.99403        -0.52371
C         29.10872        67.75620        -0.96278
C         30.38347        69.83985        -0.71542
C         29.12891        69.13482        -0.97487
C         30.39113        71.32037        -0.84420
C         29.10382        72.07801        -0.76156
C         30.38986        74.19938        -0.48013
C         29.13089        73.51410        -0.38671
C         32.75959        52.66544        -0.52111
C         32.82376        54.17255        -0.40502
C         31.65046        54.88728        -0.55141
C         32.81289        57.04503        -0.30793
C         31.61730        56.33004        -0.55098
C         32.84597        58.45853        -0.41001
C         31.64361        59.17004        -0.67675
C         32.90795        61.27510        -0.70601
C         31.67967        60.58907        -0.81581
C         32.99210        62.68559        -1.12380
C         31.67791        63.42965        -1.32221
C         32.92583        65.67460        -0.96463
C         31.64440        64.93002        -1.19893
C         32.87649        66.94342        -0.09159
C         31.56465        67.72892        -0.19605
C         32.82092        69.94949        -0.08872
C         31.56197        69.18614        -0.44180
C         32.82590        71.37966        -0.55391
C         31.65389        72.06536        -0.64100
C         32.85145        74.21658        -0.43897
C         31.61590        73.53087        -0.60837
C         35.41330        48.47471        -0.51631
C         35.37405        49.87310        -0.40701
C         34.14287        50.58946        -0.50859
C         35.29641        52.70303        -0.17383
C         34.09638        51.96847        -0.41571
C         35.27638        54.14277        -0.07071
C         34.06411        54.84269        -0.15433
C         35.28013        57.05047        -0.02051
C         34.00525        56.30300         0.22721
C         35.29402        58.45036        -0.01626
C         34.06878        59.18721        -0.20388
C         35.30926        61.32629         0.03999
C         34.10080        60.59623        -0.29882
C         35.36380        62.76035        -0.08788
C         34.36092        63.38285        -1.06149
C         35.42837        65.66008        -0.39303
C         34.25362        64.92709        -0.94418
C         35.33270        67.11451        -0.12271
C         34.11155        67.80213        -0.28021
C         35.33305        69.90489        -0.44660
C         34.10086        69.19782        -0.35057
C         35.36751        71.34836        -0.57583
C         34.10135        72.09586        -0.90442
C         35.30736        74.17792        -0.21607
C         34.09067        73.54274        -0.46188
C         37.93232        44.22521        -0.43552
C         37.87351        45.66060        -0.36518
C         36.66386        46.35241        -0.50632
C         37.87454        48.49462        -0.39702
C         36.64075        47.76629        -0.45461
C         37.85623        49.92218        -0.19775
C         36.58351        50.60373        -0.15215
C         37.70169        52.72673         0.48044
C         36.51457        52.00277         0.00695
C         37.72492        54.19374         0.37658
C         36.53806        54.84550         0.07234
C         37.80754        57.04905         0.24967
C         36.52784        56.30747        -0.09519
C         37.65375        58.43000         0.75281
C         36.48170        59.18830         0.32315
C         37.60708        61.28860         1.07426
C         36.44795        60.58674         0.46651
C         37.57468        62.80346         1.06398
C         36.48690        63.48407         0.32705
C         37.69630        65.65242         0.55064
C         36.59894        64.92745         0.15271
C         37.69409        67.15344         0.70436
C         36.52093        67.82499         0.05646
C         37.84510        69.84216        -0.41986
C         36.53770        69.20068        -0.19969
C         37.83671        71.31552        -0.69938
C         36.55792        72.04603        -0.56061
C         37.75711        74.14251        -0.05832
C         36.56421        73.48796        -0.30890
C         40.43005        40.02710        -0.87094
C         40.39711        41.41682        -0.64668
C         39.17358        42.11674        -0.55633
C         40.35234        44.18080         0.25078
C         39.11509        43.50752        -0.30693
C         40.33229        45.70082         0.08070
C         39.09116        46.40798        -0.28586
C         40.34966        48.55098        -0.93768
C         39.11543        47.80524        -0.39429
C         40.36641        50.11318        -0.64157
C         39.06233        50.61699        -0.04678
C         40.29945        52.77113         0.53258
C         39.05024        51.97936         0.47026
C         40.23967        54.16441         0.75301
C         38.98458        54.89848         0.59169
C         40.28790        57.06199         0.51043
C         39.00672        56.28069         0.62142
C         40.23945        58.48870         1.00645
C         38.97715        59.19019         1.16105
C         40.15780        61.35728         1.15420
C         38.93474        60.63668         1.15697
C         40.16425        62.79689         1.22895
C         38.87869        63.51996         1.31312
C         40.19138        65.71870         1.09025
C         38.89486        65.00766         1.12362
C         40.21101        67.15893         0.87948
C         39.03111        67.82918         0.46075
C         40.31332        69.89345         0.08086
C         39.09120        69.17329         0.04878
C         40.42498        71.21465        -0.69352
C         39.13469        72.06377        -0.67988
C         40.30617        74.16703         0.10824
C         39.06456        73.51999        -0.32013
C         43.00070        35.83341        -1.45229
C         42.96212        37.24087        -1.40744
C         41.71424        37.94667        -1.27245
C         42.86111        40.14112        -1.33146
C         41.63806        39.33078        -1.13777
C         42.88149        41.53584        -0.86833
C         41.64887        42.17586        -0.56659
C         42.86093        44.26598        -0.21915
C         41.63400        43.54288        -0.25971
C         42.87277        45.67857        -0.03164
C         41.60844        46.44945        -0.03392
C         42.85658        48.56367         0.00149
C         41.73401        47.81375        -0.70614
C         42.81126        50.00184         0.17355
C         41.58143        50.69076         0.07703
C         42.75093        52.70424         0.95150
C         41.52330        52.05095         0.46027
C         42.67063        54.18380         1.35079
C         41.43373        54.91501         1.03897
C         42.67273        57.05253         1.30973
C         41.48439        56.31030         1.00319
C         42.68629        58.48667         1.21902
C         41.44026        59.21856         1.07370
C         42.65412        61.41561         1.03452
C         41.39970        60.64850         1.13104
C         42.63687        62.86559         1.30790
C         41.37652        63.53226         1.30437
C         42.57417        65.70675         1.69484
C         41.34518        64.98805         1.31667
C         42.55171        67.24653         1.70381
C         41.40330        67.91020         1.04581
C         42.65955        70.07790         0.85055
C         41.46011        69.26796         0.62639
C         42.70478        71.39623         0.52346
C         41.72011        72.06942        -0.41799
C         42.72692        74.26588         0.18393
C         41.51081        73.52325         0.03518
C         45.49966        33.04395        -1.60459
C         44.27846        33.71290        -1.56754
C         45.46232        35.86124        -1.45200
C         44.23117        35.13372        -1.49522
C         45.43986        37.28187        -1.38759
C         44.19934        37.95445        -1.40646
C         45.42733        40.15891        -1.15490
C         44.19135        39.41982        -1.46451
C         45.37243        41.51652        -0.90824
C         44.11367        42.21825        -0.75207
C         45.33364        44.30877        -0.10476
C         44.10447        43.60000        -0.39620
C         45.29640        45.69242         0.27097
C         44.05688        46.39042         0.18602
C         45.15340        48.52280         1.00504
C         43.97756        47.83347         0.35506
C         45.25626        49.92487         0.47257
C         44.05747        50.71518         0.35841
C         45.21425        52.96770         0.70413
C         44.05939        52.12347         0.59062
C         45.14713        54.28015         1.25015
C         43.92282        54.95317         1.46842
C         45.04941        57.13616         2.17428
C         43.87546        56.35386         1.61995
C         45.11585        58.52589         1.60947
C         43.93670        59.18603         1.29364
C         45.20229        61.40292         1.43116
C         43.97111        60.65740         1.05587
C         45.15039        62.84504         1.53661
C         43.87497        63.57478         1.49780
C         45.07677        65.71468         1.99189
C         43.84678        64.96707         1.69329
C         45.12743        67.21971         1.88220
C         43.85056        68.00712         1.84198
C         45.14091        70.09472         1.08539
C         43.83389        69.53199         1.65249
C         45.17740        71.42529         0.74469
C         43.90475        72.23143         0.95601
C         45.17905        74.23996         0.20859
C         43.94126        73.60167         0.33248
C         46.70656        33.74600        -1.56968
C         47.92270        35.89777        -1.44967
C         46.71520        35.16311        -1.49109
C         47.93202        37.31038        -1.34907
C         46.67917        38.02500        -1.32195
C         47.90945        40.13476        -1.00903
C         46.67961        39.42780        -1.17736
C         47.90355        41.52635        -0.72370
C         46.63859        42.32824        -0.91777
C         47.76532        44.25457         0.35012
C         46.54505        43.60600        -0.12820
C         47.78451        45.71148         0.55032
C         46.51496        46.41626         0.58081
C         47.69923        48.53742         1.11481
C         46.46296        47.78080         0.83311
C         47.75013        49.95128         0.71978
C         46.51678        50.42944         0.18996
C         47.73463        52.96664         0.81053
C         46.52187        52.51838         0.29241
C         47.72325        54.38813         1.16260
C         46.38362        55.08087         1.31022
C         47.64827        57.12788         1.94716
C         46.40057        56.30888         2.20777
C         47.65853        58.49759         1.88017
C         46.43214        59.22112         1.35961
C         47.64430        61.39515         1.81063
C         46.39031        60.70866         1.62781
C         47.62850        62.84762         1.74001
C         46.36634        63.52680         1.67270
C         47.62516        65.73903         1.69888
C         46.38375        64.97785         1.92904
C         47.57339        67.16260         1.41144
C         46.38593        67.86036         1.42860
C         47.56047        69.86570         0.43330
C         46.25117        69.15683         0.66167
C         47.51777        71.24706         0.01418
C         46.37069        72.07015         0.21234
C         47.58894        74.32330         0.08825
C         46.40429        73.52531         0.13037
C         49.14645        38.02868        -1.26181
C         50.37492        40.16253        -0.98177
C         49.16281        39.42966        -1.07363
C         50.36850        41.53958        -0.68956
C         49.10315        42.18885        -0.47820
C         50.30867        44.35978         0.02136
C         49.10251        43.54120         0.11218
C         50.26239        45.71946         0.35823
C         49.00763        46.36289         0.68721
C         50.24791        48.58606         0.85151
C         49.03763        47.78585         1.05625
C         50.19678        50.00910         0.90768
C         48.94758        50.71968         0.77937
C         50.16970        52.86598         1.08460
C         48.96064        52.18635         0.83516
C         50.23272        54.24869         1.73118
C         48.93504        55.03585         1.68209
C         50.17682        57.05125         2.33903
C         48.88871        56.36243         2.00705
C         50.10703        58.56341         2.24600
C         48.91432        59.23654         2.01988
C         50.11696        61.44233         1.97507
C         48.84384        60.68745         1.98368
C         50.07982        62.92525         2.14626
C         48.81343        63.60820         1.81229
C         50.09481        65.84387         1.82695
C         48.81901        65.03315         1.70874
C         49.99583        67.10924         1.00804
C         48.80926        67.79531         0.93103
C         50.00825        69.80743         0.02668
C         48.76114        69.16599         0.42927
C         49.98437        71.18111        -0.44260
C         48.70015        71.75458        -0.58301
C         50.12524        74.23223        -0.28992
C         48.79315        73.87083        -0.48138
C         51.55781        42.32519        -0.63576
C         52.71956        44.49306        -0.40233
C         51.54023        43.71243        -0.36789
C         52.71730        45.85950        -0.04645
C         51.47449        46.50085         0.35786
C         52.75033        48.56907         0.98721
C         51.45897        47.87654         0.64629
C         52.67679        50.07048         0.84925
C         51.43294        50.75140         0.86169
C         52.63510        52.90540         0.71808
C         51.42281        52.18052         0.91752
C         52.60885        54.42837         0.57954
C         51.39014        55.12156         1.23811
C         52.31367        57.44787         1.09925
C         51.30616        56.47222         1.48167
C         52.57944        58.62633         1.76296
C         51.42347        59.26046         2.54130
C         52.70237        61.45317         2.34458
C         51.40832        60.72129         2.13825
C         52.69745        62.95455         2.23162
C         51.37978        63.68712         2.18616
C         52.55621        65.64503         1.25528
C         51.38352        65.06428         1.65439
C         52.52389        66.96981         0.58114
C         51.21921        67.68473         0.43197
C         52.40639        69.66861        -0.57111
C         51.20138        69.10721         0.04703
C         52.41159        71.18672        -0.91475
C         51.16214        71.93725        -0.70820
C         52.47774        74.00726        -0.86360
C         51.22835        73.38434        -0.67085
C         53.89631        46.62578        -0.15063
C         55.12877        48.70315         0.26934
C         53.96430        47.97305         0.29837
C         55.16538        50.03468         0.97123
C         53.86692        50.78912         0.74042
C         55.12303        52.77565        -0.00789
C         53.83033        52.18964         0.50505
C         55.03948        54.45985         1.70230
C         53.92180        55.08021         1.08790
C         55.19053        57.19842         1.25467
C         54.11682        56.42417         0.75048
C         55.09524        58.59374         1.55040
C         53.87615        59.30156         1.72729
C         55.12011        61.45852         1.88866
C         53.93742        60.71813         1.99500
C         55.12963        62.88478         1.67461
C         53.90718        63.62310         1.71009
C         55.05463        65.64459         0.91818
C         53.84508        64.95900         1.29556
C         55.04956        67.02426         0.56554
C         53.77236        67.82744         0.64721
C         54.99665        69.73495        -0.54574
C         53.72376        68.97085        -0.35799
C         54.94968        71.19566        -0.81453
C         53.71351        71.87836        -0.94272
C         54.92439        73.99987        -1.20357
C         53.70740        73.30479        -1.01283
C         56.41803        50.84083         0.78134
C         57.56982        52.98093         0.87602
C         56.39056        52.18817         0.58269
C         57.57454        54.30157         1.32454
C         56.33964        55.05885         1.53196
C         57.65119        57.16507         1.56250
C         56.39538        56.46213         1.45084
C         57.64452        58.52973         1.71522
C         56.36646        59.23577         1.92176
C         57.66331        61.44678         1.67465
C         56.40161        60.75779         2.00909
C         57.60785        62.83412         1.34955
C         56.33825        63.54498         1.33177
C         57.50539        65.61540         0.64805
C         56.29646        64.92474         0.95668
C         57.47495        66.99397         0.38768
C         56.25171        67.70797         0.30475
C         57.42989        69.83474        -0.20045
C         56.26717        69.13047        -0.05736
C         57.44560        71.33053        -0.36038
C         56.14809        71.92211        -0.83876
C         57.39855        73.95415        -1.45880
C         56.15654        73.31519        -1.16475
C         58.82102        55.00887         1.39368
C         60.11245        57.12485         1.45703
C         58.89263        56.40056         1.51481
C         60.14770        58.53102         1.54596
C         58.92154        59.27038         2.04300
C         60.07478        61.39314         1.28335
C         58.87163        60.72843         1.61996
C         60.05586        62.79756         1.03745
C         58.81445        63.51361         1.06724
C         59.96424        65.57942         0.43265
C         58.78660        64.91603         0.71420
C         59.90980        66.91280        -0.25669
C         58.75308        67.72428         0.25426
C         59.92756        69.78770        -0.69211
C         58.74430        69.18701        -0.03275
C         59.85821        71.12658        -1.16258
C         58.65260        71.87125        -1.09122
C         59.81760        73.83772        -2.00405
C         58.61362        73.22670        -1.52659
C         61.31334        59.24775         1.27064
C         62.50289        61.36753         0.85688
C         61.32437        60.67379         1.16993
C         62.51181        62.77587         0.66530
C         61.28076        63.47253         0.78327
C         62.52612        65.64989         0.22727
C         61.25977        64.92927         0.64893
C         62.41745        67.00223        -0.37415
C         61.20250        67.67780        -0.36868
C         62.30000        69.65927        -1.34894
C         61.12996        69.04773        -0.79148
C         62.21632        70.97995        -1.86038
C         61.03476        71.72158        -1.74335
C         62.24328        73.75906        -2.47986
C         61.00516        73.12143        -2.12025
C         63.70272        63.47058         0.25720
C         64.86558        65.50903        -0.56441
C         63.72584        64.83224        -0.04663
C         64.84263        66.86969        -0.91833
C         63.60192        67.62573        -0.87386
C         64.73238        69.58620        -1.88891
C         63.53352        68.93578        -1.38288
C         64.67479        70.85906        -2.40690
C         63.35195        71.52815        -2.68672
C         64.66490        73.68719        -2.86463
C         63.41804        73.04243        -2.64340
C         66.01919        67.53946        -1.35914
C         67.20198        69.55308        -2.13572
C         66.00073        68.86584        -1.79748
C         67.19047        70.87104        -2.59096
C         65.88889        71.49605        -2.99745
C         67.10902        73.67954        -3.07987
C         65.87605        72.99931        -2.95841
C         68.37680        71.62076        -2.76955
C         68.32598        72.99119        -3.04096
O         52.87488        62.28180         3.52500
O         42.58687        53.12622         2.35385
O         50.60718        63.47444         3.41785
O         39.16724        73.04924        -1.75208
O         37.44081        56.84460        -1.15371
O         54.45752        68.82603        -1.59141
O         27.11359        67.13698        -2.40571
O         48.45680        43.53047         1.43933
O         35.22503        65.51844        -1.86090
O         45.74264        65.28587         3.23376
O         52.23893        70.13368        -1.92708
O         43.41422        61.07915        -0.22902
O         51.84169        66.88763        -0.69927
O         29.72980        71.80454        -2.06606
O         46.58628        55.84730         3.52926
O         47.09753        55.20017         0.05698
O         32.41667        62.90909        -2.47065
O         46.57045        51.51801        -0.68715
O         62.12013        65.63792         1.63802
O         27.09706        69.72576        -2.37884
O         42.27172        66.50674         2.91558
O         43.48376        39.95348        -2.64833
O         65.78138        71.22141        -4.55662
O         38.03544        58.56898         2.13668
O         48.58690        72.83258        -1.43829
O         30.64642        67.33714         0.88730
O         59.03260        68.66353         1.33349
O         48.38612        48.13009         2.32884
O         38.71137        64.41913         2.47639
O         44.53201        67.76106         3.11726
O         53.14287        57.10316         0.00461
O         32.31710        65.71110        -2.27475
O         37.17033        62.05896         2.25503
O         40.93210        46.40721         1.25991
O         55.17564        53.54310        -0.95448
O         24.45166        71.98134        -1.40436
O         50.92198        60.99645         0.79029
O         38.25891        52.15612         1.69997
O         37.87634        70.34494        -1.82071
O         56.40498        59.93275         3.23558
O         26.87027        64.78298         1.19559
H         26.71860        65.69369         1.52858
O         40.48364        57.20872        -0.95821
H         39.59865        57.22176        -1.38810
O         40.32370        43.90533         1.67946
H         40.72775        44.68772         2.12376
O         50.51841        53.95502         3.13397
H         50.57959        54.82510         3.60264
O         43.64717        70.05176         3.00035
H         44.13663        69.44396         3.60801
O         44.89571        48.59613         2.44176
H         44.92484        47.68538         2.80270
O         40.43265        50.80908        -1.92315
H         40.07314        50.17722        -2.59665
O         37.45815        67.36689         2.14515
H         37.97522        66.69382         2.64167
O         51.67302        59.21306         3.95977
H         51.53496        58.27869         4.24594
O         32.10327        52.29032        -1.74559
H         32.64380        52.61474        -2.49468
O         44.75242        57.42135         3.56662
H         45.36812        56.79754         4.07581
O         65.80980        69.80219        -4.75361
H         66.77516        69.59162        -4.78778
O         52.92586        48.29754         2.43121
H         52.91816        47.32356         2.55100
O         45.79752        68.68956        -0.67781
H         45.82893        69.46104        -1.28483
O         52.51562        54.65050        -0.83959
H         52.60815        55.61798        -1.00397
O         27.08870        72.82031         1.84127
H         27.11162        73.62694         2.39998
O         57.59341        71.83565         1.02575
H         58.33594        71.34276         1.43845
O         42.29266        47.50442        -2.02286
H         42.86211        48.25340        -2.29973
O         46.56369        59.10690        -0.11028
H         45.85380        59.64483        -0.52436
O         53.75051        68.49015         1.94875
H         53.91601        67.81965         2.64512
O         43.76662        72.58606         2.35838
H         43.71442        71.74767         2.88565
O         50.14646        66.27687         3.22963
H         50.17790        65.45077         3.77050
O         34.98111        63.09591        -2.33634
H         34.34391        63.36928        -3.03402
O         59.54199        66.61314        -1.65359
H         60.29054        66.14185        -2.07647
O         32.97145        66.39623         1.25016
H         32.66741        67.08280         1.88200
O         55.22306        49.74789         2.41301
H         54.40850        49.22934         2.64924
O         32.78827        70.03745         1.39166
H         31.96516        70.50637         1.64692
O         40.05097        48.43254        -2.35762
H         40.75944        47.86569        -2.75733
O         46.76647        42.81224        -2.32394
H         45.86664        43.05357        -2.63381
O         33.82687        56.28027         1.70432
H         33.75044        57.21191         2.00359
O         63.01610        71.18098        -4.07529
H         63.85904        71.21341        -4.59080
O         54.89109        53.35994         2.47573
H         55.75940        53.03451         2.78961
O         29.06408        63.49658        -2.85150
H         29.92763        63.82511        -3.18281
O         34.09001        72.13415        -2.37757
H         34.90882        72.58960        -2.66885
O         50.51013        56.71151         3.74336
H         49.68006        56.80916         4.26153
O         40.52644        70.74396        -2.06745
H         39.60375        70.52727        -2.36473
O         42.46752        72.19452        -1.65244
H         41.93498        71.74385        -2.35371
O         59.03255        59.26779         3.50240
H         58.15739        59.58033         3.84433
H         23.09311        74.98563         1.46389
H         25.53373        75.03250         0.98246
H         27.96505        75.16927         0.32512
H         30.39940        75.28775        -0.31441
H         32.83439        75.29799        -0.23266
H         35.31981        75.25129         0.02740
H         37.74334        75.20200         0.23723
H         40.26935        75.22202         0.42051
H         42.70405        75.36036         0.05991
H         45.20142        75.32392         0.01452
H         47.52654        75.34596         0.48838
H         50.36134        75.19080         0.19407
H         52.51489        75.10673        -0.85348
H         54.90711        75.08942        -1.35146
H         57.39438        75.01651        -1.74434
H         59.79691        74.90339        -2.27740
H         62.26212        74.85762        -2.55830
H         64.68147        74.78813        -2.91248
H         67.10661        74.77734        -3.14455
H         22.11638        69.17535         0.40460
H         20.95421        71.23673         1.20505
H         21.02669        73.65465         1.72942
H         24.49480        65.01882        -0.16844
H         23.25411        67.12750        -0.13041
H         27.00687        60.67897        -0.90481
H         25.79308        62.77441        -0.50088
H         29.48697        56.48392        -0.96078
H         28.24815        58.60728        -1.03345
H         32.10204        52.28135         0.30625
H         30.71547        54.34304        -0.75027
H         34.47619        47.91375        -0.64591
H         33.21427        50.02757        -0.68596
H         37.00711        43.68716        -0.69428
H         35.72066        45.79689        -0.60722
H         39.48629        39.46140        -0.84521
H         38.23848        41.57807        -0.77539
H         42.05863        35.26540        -1.45563
H         40.79286        37.35082        -1.18716
H         45.51455        31.94645        -1.66332
H         43.33729        33.14549        -1.59728
H         47.66180        33.20282        -1.60236
H         48.88102        35.35743        -1.47507
H         50.09855        37.47939        -1.30729
H         51.33223        39.64116        -1.12815
H         52.52248        41.83869        -0.84270
H         53.66651        44.02342        -0.70676
H         54.80050        46.16137        -0.57186
H         56.05498        48.25978        -0.12688
H         57.34632        50.36970         1.14617
H         58.54224        52.46557         0.80627
H         59.75092        54.43499         1.25971
H         61.04703        56.57952         1.25164
H         62.23852        58.69900         1.03399
H         63.44305        60.80650         0.74816
H         64.61767        62.87771         0.10640
H         65.80470        64.94685        -0.68104
H         66.97479        66.99347        -1.34517
H         68.16665        69.05478        -1.95178
H         69.34853        71.13098        -2.60950
H         69.26464        73.55424        -3.13925
