         410
 CSIRO Nanostructure Databank - Neutral Graphene Oxide Data Set
C         28.30231        27.21131         1.05627
C         28.25530        28.64641         1.08830
C         27.08972        29.33396         1.48627
C         28.16906        31.48750         1.08966
C         27.04694        30.72109         1.47596
C         28.13478        32.93715         1.05137
C         26.94417        33.65030         1.29245
C         28.07267        35.79094         1.00244
C         26.91333        35.03900         1.25731
C         28.05946        37.24802         1.09783
C         26.86070        37.98863         1.38576
C         28.06790        40.12196         1.43732
C         26.86168        39.36144         1.46439
C         28.10338        41.53432         1.53543
C         26.90114        42.28508         1.74977
C         28.09647        44.39317         1.54493
C         26.88709        43.65491         1.73025
C         28.05762        45.82038         1.34450
C         30.60312        27.25179         0.21863
C         29.42672        26.54896         0.64730
C         30.57813        28.70489         0.23982
C         29.40345        29.38902         0.69833
C         30.54180        31.55898         0.36992
C         29.37014        30.81391         0.71954
C         30.53396        32.98731         0.40683
C         29.32044        33.67015         0.74305
C         30.49694        35.81134         0.43343
C         29.29631        35.09716         0.74024
C         30.42652        37.27912         0.37373
C         29.24553        37.94952         0.93889
C         30.63493        40.15334         1.09579
C         29.31883        39.36726         1.31151
C         30.56520        41.61266         1.05844
C         29.34260        42.26257         1.35546
C         30.56815        44.43180         1.37031
C         29.30371        43.69246         1.41031
C         30.51401        45.97189         1.24037
C         29.17667        46.55187         1.08857
C         32.98761        24.48068        -0.51356
C         31.93971        25.13898         0.02628
C         32.91226        27.29899        -0.65807
C         31.76735        26.56779        -0.18007
C         32.81347        28.77695        -0.88656
C         31.69633        29.45079        -0.15061
C         32.90319        31.60649        -0.37052
C         31.71401        30.87252        -0.04564
C         32.91555        33.01615        -0.26838
C         31.71988        33.71375         0.09363
C         32.93229        35.89132        -0.08942
C         31.70135        35.14994         0.13587
C         32.95472        37.29770        -0.02877
C         31.70486        38.05429         0.13429
C         32.95307        40.18657         0.20210
C         31.79221        39.48271         0.48215
C         32.98615        41.63303         0.35532
C         31.77685        42.34614         0.77007
C         33.01105        44.52340         0.80875
C         31.78336        43.73072         0.95053
C         32.93937        45.99208         0.58108
C         31.72760        46.68138         0.74427
C         32.85303        48.78982         0.27957
C         31.69785        48.08176         0.55608
C         35.18331        23.15571        -2.02953
C         35.21714        24.48350        -1.72282
C         33.91189        25.20003        -1.46456
C         35.32091        27.36051        -1.19355
C         34.05904        26.64764        -1.07158
C         35.34990        28.77313        -1.01450
C         34.12478        29.50676        -0.80568
C         35.31611        31.64101        -1.19268
C         34.10722        30.88449        -0.71985
C         35.35194        33.08429        -0.76772
C         34.15278        33.75642        -0.47040
C         35.37500        35.90167        -0.49493
C         34.15426        35.17995        -0.33332
C         35.37530        37.32910        -0.43822
C         34.16155        38.03888        -0.20515
C         35.34261        40.18486        -0.48919
C         34.15222        39.47137        -0.18512
C         35.34346        41.64484        -0.45016
C         34.14828        42.32413         0.02482
C         35.27410        44.58171        -0.37958
C         34.22602        43.77442         0.29422
C         35.34363        46.02777        -0.10685
C         34.12493        46.71034         0.22644
C         35.32445        48.85728        -0.11474
C         34.09452        48.12983         0.12855
C         35.33595        50.26974        -0.11773
C         37.60390        23.01870        -2.18038
C         36.38363        22.42547        -2.30313
C         37.79452        24.46813        -1.95016
C         36.47862        25.24557        -1.83325
C         37.79652        27.29849        -1.31296
C         36.52869        26.64987        -1.38189
C         37.80329        28.70421        -1.06653
C         36.60222        29.45579        -0.99334
C         37.79348        31.63314        -1.02108
C         36.61359        30.90439        -0.96893
C         37.81735        33.07359        -1.04610
C         36.58872        33.78766        -0.86049
C         37.83511        35.92732        -0.84592
C         36.60090        35.20684        -0.72680
C         37.82248        37.34511        -0.83353
C         36.58440        38.05013        -0.66849
C         37.75341        40.17007        -1.16714
C         36.53130        39.46627        -0.76242
C         37.74003        41.68458        -1.15723
C         36.50474        42.36015        -0.72764
C         37.77916        44.58593        -0.78722
C         36.51493        43.83855        -0.80900
C         37.76567        45.99354        -0.63196
C         36.53233        46.71933        -0.37339
C         37.77606        48.88567        -0.46364
C         36.55168        48.15949        -0.31321
C         37.75098        50.30039        -0.40690
C         36.52136        50.96899        -0.25208
C         40.22113        20.26716         0.22617
C         39.40785        20.64216        -0.83196
C         40.32169        22.95440        -0.80594
C         39.46922        21.95658        -1.32318
C         40.22977        24.37138        -1.13568
C         39.06268        25.10958        -1.48231
C         40.28167        27.29961        -1.33436
C         39.04549        26.55306        -1.39115
C         40.32490        28.69113        -1.24401
C         39.07886        29.41435        -0.94500
C         40.28631        31.61828        -1.52503
C         39.08248        30.92025        -0.93212
C         40.30697        33.09300        -1.19836
C         39.06619        33.78565        -1.08311
C         40.31155        35.93225        -1.05583
C         39.07242        35.21476        -0.99342
C         40.31263        37.35565        -1.06998
C         39.05897        38.07568        -0.99643
C         40.26890        40.24712        -1.46291
C         39.03439        39.46088        -1.11004
C         40.20364        41.67559        -0.94734
C         39.03214        42.38657        -0.93547
C         40.21306        44.53879        -0.74066
C         39.01056        43.84646        -0.77144
C         40.22445        45.98910        -0.92164
C         38.98696        46.73689        -0.69815
C         40.28188        48.82908        -0.46372
C         39.02973        48.14892        -0.59511
C         40.31740        50.30794        -0.41811
C         39.00420        51.09499        -0.46496
C         40.23394        53.07922         0.33682
C         39.05293        52.47697         0.03970
C         42.17702        20.73193         1.64426
C         41.22552        21.15563         0.67059
C         42.50826        23.21772         0.39241
C         41.34330        22.46534         0.09966
C         42.72451        24.45875        -0.36184
C         41.52694        25.08130        -1.09561
C         42.82609        27.30785        -1.07149
C         41.55928        26.55208        -1.38734
C         42.79076        28.78596        -0.96255
C         41.55869        29.46491        -1.18685
C         42.77085        31.61443        -1.09869
C         41.56181        30.87999        -1.21102
C         42.78083        33.05382        -1.12790
C         41.53609        33.78368        -1.15152
C         42.79729        35.91786        -1.10883
C         41.55466        35.21744        -1.10172
C         42.78889        37.36617        -1.10796
C         41.54436        38.07702        -1.13346
C         42.76546        40.19947        -1.07780
C         41.55633        39.50604        -1.16246
C         42.78154        41.62844        -0.68446
C         41.46401        42.33412        -0.53626
C         42.78212        44.53949        -0.38467
C         41.46059        43.82615        -0.42264
C         42.81229        46.00388        -0.50457
C         41.58266        46.74290        -0.76834
C         42.71102        48.76332         0.10717
C         41.51521        48.14761        -0.37812
C         42.61328        50.14725         0.61133
C         41.47511        50.96936         0.18896
C         42.69782        53.00657         0.80310
C         41.47027        52.33621         0.43157
C         43.27924        21.49529         1.93828
C         44.78680        23.41773         1.37371
C         43.51562        22.72725         1.25729
C         44.98580        24.68525         0.74744
C         43.89487        25.29464        -0.00977
C         45.20764        27.35342        -0.31735
C         43.94983        26.60063        -0.42104
C         45.15235        28.84536        -0.10868
C         43.96555        29.50926        -0.74363
C         45.25791        31.61806        -0.87997
C         43.99597        30.91918        -0.88001
C         45.25349        33.01513        -1.02474
C         44.01593        33.74615        -1.06836
C         45.27666        35.89142        -1.09795
C         44.02843        35.18896        -1.09201
C         45.26054        37.34767        -1.27071
C         44.00081        38.09313        -1.13552
C         45.23708        40.27181        -0.95138
C         44.01622        39.51587        -1.08392
C         45.28505        41.69035        -0.85632
C         44.04447        42.41025        -0.75107
C         45.27078        44.53921        -0.52552
C         44.04281        43.79175        -0.57275
C         45.23184        45.93376        -0.18044
C         43.98475        46.66930        -0.17262
C         45.15771        48.73799         0.58604
C         43.93948        48.07847         0.15339
C         45.15865        50.10248         0.97378
C         43.88796        50.86446         1.05669
C         43.86181        52.33377         0.99766
C         47.08456        23.50523         2.21970
C         45.87501        22.85049         2.08473
C         47.28693        24.80106         1.67088
C         46.21502        25.35985         0.91226
C         47.52792        27.54632         0.67827
C         46.39896        26.68150         0.30051
C         47.64087        28.79829         0.11557
C         46.47634        29.50986        -0.38069
C         47.80484        31.52300        -0.90361
C         46.49361        30.84624        -0.74120
C         47.83370        33.01172        -1.07908
C         46.52787        33.76455        -1.18644
C         47.75858        35.94443        -0.87809
C         46.51988        35.23918        -1.02475
C         47.79432        37.34115        -0.73499
C         46.56951        38.09384        -1.04577
C         47.77518        40.26939        -0.50390
C         46.45964        39.52038        -0.65160
C         47.76840        41.67849        -0.92205
C         46.54062        42.42749        -0.89095
C         47.70556        44.69167        -0.69131
C         46.51047        43.87120        -0.77009
C         47.66977        45.98898        -0.07624
C         46.42421        46.63790         0.12725
C         47.60037        48.66071         0.94991
C         46.39065        48.01412         0.56370
C         47.55839        50.01551         1.34789
C         46.36603        50.72026         1.34684
C         49.66741        24.94935         2.40352
C         48.51526        25.53057         1.85631
C         49.87896        27.68917         1.61223
C         48.51467        27.03379         1.69560
C         49.98355        28.93715         1.03191
C         49.03831        29.34751        -0.07245
C         50.22770        31.65197        -0.06604
C         49.05960        30.82683        -0.44975
C         50.24214        33.06085        -0.35549
C         49.08229        33.73256        -0.77599
C         50.31713        35.93851        -0.60781
C         49.05058        35.19748        -0.92317
C         50.22313        37.33248         0.01908
C         49.00650        38.10094        -0.48733
C         50.27584        40.32333        -0.32659
C         49.02894        39.47721        -0.54424
C         50.24554        41.52565        -1.25398
C         48.99771        42.14328        -1.45776
C         50.17405        44.89229        -0.83458
C         48.94363        44.31271        -1.25062
C         50.14333        46.04027         0.01515
C         48.88814        46.66466         0.26507
C         50.08543        48.50719         1.31426
C         48.85971        47.94956         0.86838
C         50.85164        25.66154         2.60171
C         52.30701        27.63128         2.17677
C         51.01817        27.01910         2.20658
C         52.40392        29.05950         1.85800
C         51.16479        29.75847         1.25399
C         52.58280        31.72345         0.61244
C         51.32583        31.05400         0.55295
C         52.68600        33.07235         0.22923
C         51.48242        33.77349        -0.11515
C         52.76055        35.84996        -0.20746
C         51.52783        35.16643        -0.25044
C         52.74064        37.25153        -0.65326
C         51.55654        38.07293        -0.24298
C         52.70746        40.12050        -1.32099
C         51.58892        39.54337        -0.44252
C         52.73216        41.63438        -1.19780
C         51.48033        42.15750        -1.55757
C         52.63145        44.66278        -0.49099
C         51.42653        44.32430        -1.16184
C         52.61164        45.91006         0.22239
C         51.36648        46.61099         0.45507
C         51.29194        47.85341         1.14058
C         54.75265        27.58773         2.35265
C         53.53065        26.94877         2.42826
C         54.87159        28.93914         1.88390
C         53.71417        29.64212         1.55936
C         55.16773        31.64691         0.84873
C         53.79855        30.93553         0.87946
C         55.15599        33.11453         0.63830
C         53.95580        33.77293         0.28100
C         55.22843        35.91791        -0.01116
C         53.98415        35.17781        -0.01226
C         55.26038        37.30254        -0.34213
C         54.05346        37.95888        -0.86646
C         55.25813        40.25523        -0.76920
C         54.04878        39.44555        -1.10334
C         55.13398        41.73842        -0.64329
C         53.89211        42.42338        -0.85853
C         55.03518        44.48565        -0.09908
C         53.83646        43.84600        -0.54338
C         55.02162        45.81619         0.41753
C         53.84375        46.48003         0.64346
C         56.14421        29.63510         1.89293
C         56.26361        30.94107         1.53364
C         56.35485        33.86798         0.71675
C         56.39875        35.20888         0.38910
C         56.35056        38.15695         0.04227
C         56.35385        39.51556        -0.09904
C         56.31132        42.44701        -0.34663
C         56.27542        43.80447        -0.09696
O         38.70994        22.21663        -2.46182
O         49.93176        35.76952        -1.99328
O         47.27348        33.37166        -2.39893
O         55.00615        39.78933        -2.15398
O         35.49748        44.29426        -1.79266
O         42.54793        24.32104        -1.81074
O         42.49116        26.89374        -2.45256
O         54.67329        30.90135        -0.30858
O         30.28485        39.58519         2.41367
O         53.31174        37.34485        -2.00224
O         37.19115        25.15016        -3.11809
O         42.02560        44.24166         0.87503
O         34.10711        44.11586         1.71161
O         30.74061        37.82191        -0.97981
O         46.07588        37.84388        -2.39700
O         42.09076        41.72087         0.63632
O         51.51850        29.91189         2.67253
O         48.95124        43.32094        -2.23810
O         41.00606        46.43463        -2.08305
O         51.99443        38.98827         0.83621
O         50.01415        37.17167         1.38825
O         42.95566        50.28975         2.03502
O         48.72454        30.92951        -1.88598
O         46.22266        26.78601        -1.17835
O         39.81816        50.90290        -1.66663
O         37.61278        40.96992        -2.44208
O         46.97063        39.89036         0.66328
O         30.75796        45.32653         2.52651
O         39.25923        30.21505         0.32162
O         51.46170        43.41192        -2.20687
O         35.14814        31.68655        -2.67057
H         35.93736        32.14058        -3.03783
O         33.20901        25.22151        -2.75689
H         33.68937        25.84232        -3.34499
O         32.44178        28.87586        -2.32294
H         32.53136        29.81935        -2.58095
O         47.96510        27.52425         2.98373
H         48.60508        27.27521         3.68488
O         50.20341        40.85217         1.01948
H         50.44047        40.10441         1.61774
O         40.26178        40.38710        -2.92995
H         39.33838        40.64836        -3.17750
O         40.07775        31.52417        -2.97653
H         40.84986        31.93541        -3.41988
O         44.90707        28.97507         1.33873
H         44.83842        29.93024         1.55030
O         49.56245        28.62509        -1.22861
H         49.21557        29.08701        -2.02880
O         52.29782        39.84068        -2.68779
H         52.68672        38.96913        -2.94242
H         27.40779        26.64824         1.35987
H         26.20374        28.76012         1.79370
H         26.11779        31.21922         1.78310
H         26.01131        33.11349         1.50828
H         25.95846        35.54415         1.45235
H         25.90258        37.46027         1.47275
H         25.90005        39.87465         1.59851
H         25.95704        41.75128         1.91951
H         25.94333        44.20171         1.86716
H         27.06939        46.29954         1.28033
H         29.41910        25.45086         0.61942
H         29.07623        47.59364         0.75338
H         33.12248        23.40354        -0.33568
H         31.22817        24.59863         0.66731
H         32.78599        49.88105         0.18487
H         30.75597        48.63135         0.68377
H         34.22572        22.61773        -2.04077
H         34.40507        50.83634         0.00917
H         36.32692        21.36138        -2.56373
H         36.49074        52.06617        -0.24081
H         40.15278        19.26010         0.66026
H         38.70357        19.93425        -1.28722
H         40.24500        54.13354         0.65051
H         38.11844        53.04305         0.15735
H         42.03605        19.75480         2.12820
H         42.69265        54.10644         0.82590
H         44.00386        21.12368         2.67421
H         44.79957        52.89420         1.11951
H         47.88601        23.02084         2.79374
H         45.76803        21.86094         2.54826
H         48.47760        50.53228         1.65230
H         46.36740        51.77083         1.66653
H         49.66972        23.87864         2.65357
H         50.08992        49.47852         1.82647
H         51.70863        25.12177         3.02726
H         52.20302        48.33055         1.52508
H         55.66965        27.03603         2.60414
H         53.50881        25.88883         2.71778
H         55.97772        46.27008         0.71575
H         53.86360        47.46544         1.12571
H         57.00644        29.11025         2.33065
H         57.20934        31.47005         1.72001
H         57.29057        33.36119         0.99114
H         57.36978        35.72200         0.40244
H         57.21502        37.69681         0.54241
H         57.20767        40.07477         0.30760
H         57.27148        41.91836        -0.29218
H         57.19003        44.34905         0.17539
