         210
 CSIRO Nanostructure Databank - Neutral Graphene Oxide Data Set
C         30.48864        31.69233         1.53962
C         30.54155        32.93977         1.44673
C         30.47280        36.03187         1.01378
C         30.45817        37.26146         0.78713
C         30.43473        40.34290         0.37699
C         30.36028        41.59255         0.28856
C         32.90411        28.90482         1.27862
C         31.79233        29.46612         1.43843
C         32.88476        31.60469         1.22406
C         31.63627        30.86876         1.42093
C         32.87598        33.05000         1.13188
C         31.64546        33.79160         1.21919
C         32.81786        35.92395         0.77052
C         31.61183        35.18803         1.03215
C         32.78511        37.32735         0.49389
C         31.58187        38.07745         0.48562
C         32.75213        40.25617         0.11640
C         31.56501        39.49706         0.29624
C         32.75065        41.68428         0.03841
C         31.49031        42.42494         0.11571
C         32.76929        44.35620        -0.19332
C         31.64214        43.82185        -0.03629
C         35.63649        27.37728         0.92710
C         35.40699        28.74630         1.00897
C         34.18736        29.46140         1.11263
C         35.36505        31.64043         0.89609
C         34.13200        30.90032         1.08874
C         35.34381        33.06676         0.85373
C         34.08920        33.79219         0.93944
C         35.29029        35.97114         0.68943
C         34.06361        35.20932         0.77763
C         35.31961        37.34041         0.42724
C         34.03837        38.01388         0.11971
C         35.29912        40.27092         0.01143
C         34.02427        39.52299        -0.06430
C         35.26395        41.64591        -0.15407
C         34.00938        42.37127        -0.15694
C         35.29098        44.51019        -0.38274
C         34.05554        43.79355        -0.27544
C         35.43359        45.92272        -0.42033
C         37.90883        27.28178         0.17439
C         36.67936        26.75075         0.55365
C         37.95865        28.72361         0.53771
C         36.68653        29.49495         0.92905
C         37.78663        31.69067         0.44279
C         36.61183        30.96701         0.73508
C         37.78684        33.10624         0.52284
C         36.56780        33.77704         0.76988
C         37.84227        36.01168         0.87513
C         36.54570        35.24475         0.95626
C         37.80038        37.45516         0.51678
C         36.54818        38.11124         0.34736
C         37.78087        40.24639         0.11104
C         36.55201        39.53166         0.12862
C         37.75569        41.76049         0.22582
C         36.56357        42.34226        -0.53845
C         37.77862        44.54888        -0.53320
C         36.53994        43.85287        -0.42889
C         37.81425        45.99390        -0.60625
C         36.51381        46.54791        -0.49998
C         40.16735        24.73751        -1.36058
C         39.16479        25.35037        -0.90224
C         40.27388        27.39424        -0.68460
C         39.02329        26.68387        -0.48485
C         40.33091        28.79265        -0.38113
C         39.04775        29.50189        -0.11976
C         40.28370        31.74088        -0.38881
C         38.97706        30.98946        -0.12207
C         40.28674        33.14980         0.17470
C         39.04557        33.85015         0.40494
C         40.32984        35.95646         0.62489
C         39.06256        35.22453         0.60595
C         40.28811        37.45520         0.52259
C         39.00135        38.16556         0.35648
C         40.29333        40.31069         0.09215
C         39.01970        39.57573         0.16825
C         40.30121        41.73884        -0.10843
C         39.05562        42.44927        -0.16946
C         40.28069        44.47914        -0.87174
C         39.02165        43.80414        -0.50187
C         40.29673        46.02329        -1.01045
C         39.01420        46.72088        -0.71166
C         40.31974        48.77459        -0.67442
C         39.25832        48.08650        -0.60689
C         42.69474        24.82922        -1.95153
C         41.43392        25.32642        -1.52292
C         42.69678        27.49583        -1.18815
C         41.46732        26.74112        -1.14684
C         42.73975        28.86638        -0.78243
C         41.52054        29.51016        -0.40406
C         42.79276        31.68200        -0.06569
C         41.49547        30.92946         0.13594
C         42.77323        33.07852         0.07560
C         41.52335        33.80421         0.22186
C         42.77806        35.92151         0.18892
C         41.58181        35.23337         0.34376
C         42.79225        37.38840        -0.03979
C         41.50970        38.15136         0.02881
C         42.78072        40.29013         0.06540
C         41.51635        39.62522         0.11099
C         42.79531        41.70589        -0.13118
C         41.54705        42.41686        -0.28444
C         42.76421        44.54528        -0.72809
C         41.56844        43.81642        -0.61109
C         42.78194        45.96991        -0.90339
C         41.58701        46.74452        -0.92159
C         42.89435        48.76384        -1.00195
C         41.58795        48.19773        -0.88134
C         43.73468        25.52425        -1.96047
C         45.15476        27.57566        -1.53436
C         43.94437        26.87815        -1.59335
C         45.21213        28.94975        -1.08701
C         43.98401        29.59394        -0.74481
C         45.25336        31.66584        -0.29812
C         44.01001        30.97407        -0.34878
C         45.26653        33.04311         0.31644
C         44.00374        33.82189         0.08162
C         45.28341        35.97563        -0.11560
C         44.01008        35.20733         0.10241
C         45.25104        37.43127         0.25264
C         44.05817        38.13155         0.14500
C         45.24808        40.28114         0.27407
C         44.01734        39.57131         0.17691
C         45.24831        41.70139         0.08197
C         44.03717        42.37891        -0.20733
C         45.22381        44.57097        -0.10532
C         44.09017        43.79065        -0.76425
C         45.26937        45.99328        -0.70139
C         44.08879        46.65051        -0.95849
C         43.91331        48.05297        -1.12237
C         47.54735        27.65827        -1.66722
C         46.45987        27.07617        -1.82893
C         47.75417        28.98326        -1.16810
C         46.46005        29.65146        -0.95988
C         47.78777        31.76371        -0.57481
C         46.46193        31.01227        -0.56572
C         47.75021        33.14375         0.04451
C         46.53585        33.83245         0.12104
C         47.71070        35.94332         0.54230
C         46.52027        35.23539         0.27913
C         47.67678        37.38406         0.70998
C         46.49244        38.11802         0.52009
C         47.67938        40.29941         0.68854
C         46.48151        39.57460         0.52274
C         47.71829        41.70608         0.43791
C         46.51472        42.41013         0.11667
C         47.78813        44.47103        -0.21261
C         46.54326        43.80766        -0.12892
C         47.69599        45.89142        -0.45492
C         46.59959        46.44074        -0.71132
C         50.26484        29.09300        -0.75734
C         48.93995        29.56101        -0.76222
C         50.24588        31.65618         0.08329
C         48.91086        30.90699         0.00749
C         50.20733        33.04777         0.39796
C         48.96708        33.81345         0.33656
C         50.12079        35.86877         1.13092
C         48.93805        35.20555         0.64007
C         50.03146        37.21669         1.61891
C         48.95088        38.08141         1.02884
C         50.03925        40.47397         1.60078
C         48.95841        39.60101         1.01002
C         50.15161        41.80520         1.06466
C         48.97838        42.40840         0.46838
C         50.28395        44.33735         0.16829
C         48.99129        43.77656         0.05181
C         51.35915        29.53659        -0.32721
C         52.59393        31.69286         0.45848
C         51.47923        30.92120         0.06310
C         52.51649        32.90198         0.80136
C         51.38529        33.73975         0.83576
C         52.24281        35.80067         2.06158
C         51.30741        35.08502         1.29933
C         52.16836        36.90205         2.67027
C         51.00624        37.70454         2.50396
C         52.09094        40.85657         2.75664
C         50.97825        40.00984         2.53562
C         52.23990        41.96203         2.17039
C         51.34901        42.60283         1.29766
C         51.32189        43.89776         0.71231
O         50.79536        38.84536         3.25450
O         37.22841        35.70060         2.18096
O         37.70074        29.07754         1.92264
O         40.21062        45.15029        -2.17541
O         40.45646        36.84040         1.83670
O         45.35108        35.98065        -1.68113
O         34.00078        38.60827        -1.22795
O         49.46510        38.83313        -0.15121
O         38.56521        30.21591        -1.32497
O         42.02667        37.70550        -1.27540
O         48.13664        31.97582        -1.96945
H         47.50782        32.62063        -2.35652
O         40.42802        31.91245        -1.81163
H         39.81487        31.27170        -2.24579
O         44.44827        43.66190        -2.16740
H         43.71254        43.21377        -2.63498
O         46.60083        36.56813        -2.07100
H         46.36263        37.50406        -2.28154
O         48.54843        30.58716         1.36437
H         49.28201        30.08196         1.77377
O         37.52853        42.05453         1.63210
H         38.25153        41.64753         2.15373
O         45.26455        32.79766         1.77653
H         44.42879        32.33207         1.99498
O         36.78741        42.02395        -1.93718
H         36.02941        42.35664        -2.46136
O         41.28733        30.81977         1.57605
H         41.99362        30.25281         1.95054
O         44.87259        44.73562         1.28809
H         45.60582        45.20509         1.73877
