         240
 CSIRO Nanostructure Databank - Neutral Graphene Oxide Data Set
C        -11.21707         0.65252         0.17110
C         -9.98671         1.39058        -0.04964
C         -8.78393         0.69427        -0.16662
C         -7.55840         1.36206        -0.53192
C         -6.37099         0.67335        -0.68109
C         -5.09304         1.30656        -1.09615
C         -3.81854         0.61575        -0.82465
C         -2.57181         1.26058        -1.28945
C         -1.24432         0.53579        -1.12810
C          0.05263         1.29897        -1.10198
C          1.18974         0.82170        -0.19743
C          2.52701         1.50988        -0.47120
C          3.70587         0.84827        -0.15077
C          4.98774         1.55115        -0.14313
C          6.27452         0.79457        -0.07656
C          7.54344         1.49273         0.37804
C          8.80402         0.73781         0.09091
C          9.98894         1.43547        -0.04792
C         11.19868         0.65669        -0.29144
C         -9.98264         2.82808        -0.08119
C         -8.82937         3.53727        -0.35685
C         -7.65311         2.81487        -0.97196
C         -6.34550         3.57349        -0.85277
C         -5.10524         2.85596        -1.23590
C         -3.81924         3.56876        -1.05675
C         -2.57411         2.80133        -1.32398
C         -1.26516         3.54080        -1.26910
C          0.04387         2.78458        -1.28449
C          1.29975         3.54414        -1.07345
C          2.51904         2.92827        -0.79775
C          3.87818         3.66341        -0.91821
C          5.04131         2.89640        -0.34100
C          6.33762         3.63660        -0.28396
C          7.61900         2.91209        -0.11664
C          8.87816         3.64938         0.17863
C         10.03213         2.88799         0.07880
C         -8.73908         4.93974        -0.12089
C         -7.53826         5.62904        -0.22979
C         -6.32401         4.91949        -0.61475
C         -5.08770         5.73543        -0.94178
C         -3.81398         4.91479        -0.80871
C         -2.55275         5.65105        -0.54432
C         -1.24900         4.94082        -0.72716
C         -0.00808         5.70152        -0.99695
C          1.09347         4.96437        -1.34657
C          2.95109         5.95551        -0.76172
C          3.88148         5.07865        -0.34427
C          5.00036         5.69121         0.42446
C          6.32536         5.00429         0.31377
C          7.59405         5.76369         0.45136
C          8.80694         5.07290         0.36814
C         -7.45727         7.02551         0.09779
C         -6.25925         7.70119         0.17865
C         -5.00401         7.05288        -0.18648
C         -3.81896         7.71306        -0.02286
C         -2.59410         7.16917        -0.73659
C         -1.25299         7.86785        -0.42301
C          0.05125         7.17301        -0.68189
C          1.26117         7.75544         0.05818
C          2.62364         7.15418         0.02217
C          3.83718         7.89286         0.41863
C          5.01112         7.17319         0.55140
C          6.26234         7.85147         0.78037
C          7.48593         7.16328         0.72650
C         -6.21404         9.12174         0.49631
C         -5.04526         9.75426         0.72269
C         -3.76590         8.96555         0.83259
C         -2.51163         9.76582         0.62813
C         -1.23012         8.99084         0.61782
C          0.02053         9.82985         0.52215
C          1.24075         9.22161         0.38217
C          2.49162         9.92803         0.57295
C          3.74509         9.30944         0.62643
C          4.99491         9.97335         0.91742
C          6.17859         9.28151         0.97720
C        -11.25705        -0.71435         0.19574
C        -10.04903        -1.50327         0.14352
C         -8.74144        -0.74289         0.30378
C         -7.65369        -1.51054        -0.42045
C         -6.32584        -0.78858        -0.47544
C         -5.04938        -1.39691         0.01064
C         -3.76304        -0.62323        -0.12187
C         -2.55405        -1.29253         0.09010
C         -1.28837        -0.91311        -0.64901
C          0.01494        -1.40210        -0.01260
C          1.23206        -0.69163        -0.06768
C          2.43416        -1.34367         0.29725
C          3.67438        -0.53641         0.36635
C          4.99491        -1.35079         0.43481
C          6.26518        -0.67538         0.06065
C          7.50561        -1.43822         0.42033
C          8.85200        -0.72031         0.48884
C          9.96974        -1.47848        -0.19610
C         11.17240        -0.70288        -0.42677
C        -10.02899        -2.87207         0.02685
C         -8.77796        -3.62314         0.14187
C         -7.58956        -2.91750         0.10738
C         -6.41429        -3.51636         0.82597
C         -5.11017        -2.69881         0.75770
C         -3.80602        -3.39902         0.91450
C         -2.52454        -2.63704         0.70501
C         -1.23363        -3.37827         0.83704
C          0.03731        -2.73998         0.41789
C          1.24784        -3.43536         0.65693
C          2.46945        -2.73109         0.59134
C          3.77435        -3.42071         1.04361
C          4.94813        -2.78552         0.36680
C          6.09444        -3.51663        -0.28019
C          7.43295        -2.89939         0.14294
C          8.66677        -3.60466        -0.28587
C          9.87659        -2.82371        -0.46559
C         -8.72405        -5.05788         0.29387
C         -7.50698        -5.73571         0.35875
C         -6.26419        -4.99749         0.52194
C         -5.05597        -5.64694         0.60689
C         -3.78632        -4.87715         0.67161
C         -2.48667        -5.60218         0.71881
C         -1.21820        -4.87891         1.14486
C         -0.00117        -5.55978         0.55816
C          1.19831        -4.89728         0.65525
C          2.45305        -5.67728         0.68630
C          3.77260        -4.95012         0.91067
C          5.01269        -5.66764         0.51275
C          6.10894        -5.00136         0.01633
C          7.35543        -5.70681        -0.29630
C          8.56758        -4.94153        -0.57464
C         -7.41221        -7.16452         0.21071
C         -6.20463        -7.82671         0.25744
C         -4.96378        -7.09929         0.50318
C         -3.77312        -7.78258         0.62911
C         -2.44080        -7.11358         0.85925
C         -1.41527        -7.64886        -0.17893
C         -0.07847        -6.89981        -0.07033
C          1.22363        -7.65634        -0.27186
C          2.45969        -7.05042         0.21833
C          3.66147        -7.86069         0.37058
C          5.01212        -7.15227         0.60406
C          6.31378        -7.92043         0.34447
C          7.40538        -7.07262        -0.25343
C         -6.10834        -9.25653        -0.00224
C         -4.95281        -9.93715         0.13888
C         -3.72215        -9.28998         0.71684
C         -2.41950        -9.88400         0.20923
C         -1.29537        -9.16188        -0.05594
C         -0.02168        -9.80888        -0.31527
C          1.17393        -9.13786        -0.39155
C          2.44653        -9.81007        -0.55486
C          3.64226        -9.20871        -0.25128
C          4.91314        -9.82733        -0.58354
C          6.10594        -9.21770        -0.41105
O         -5.22901         6.04894        -2.35691
H         -4.45471         6.61183        -2.60730
O         -1.09012        -5.01053         2.59035
H         -1.40456        -4.15417         2.97814
O         -1.38069        -1.73537        -1.85889
H         -0.92962        -1.23944        -2.58125
O          5.53651         4.96406         1.56642
O          3.09948        -5.53909         2.05735
O         -3.72512        -9.61974         2.15076
H         -3.04121        -9.03848         2.56354
O          0.76274         1.31516         1.11537
H          1.44131         1.05911         1.77676
O          3.87990        -3.14468         2.46604
H          3.42687        -3.88781         2.93036
O         -0.32918         0.57775        -2.28993
O          9.19760        -0.66194         1.91752
H          8.84575        -1.49645         2.31479
O          6.83465        -8.32653         1.64764
H          6.04634        -8.48941         2.21702
O          1.69417         6.89357         1.15897
O         -1.96275        -7.38380        -1.48061
H         -1.20689        -7.27343        -2.10050
O         -8.40164        -0.69890         1.71601
H         -9.18569        -0.37701         2.20749
O          7.44595         1.59775         1.83360
H          8.00256         0.88149         2.22754
O          4.39159        -0.71430         1.62073
O         -1.10503         8.26060         1.91296
H         -0.80028         8.90397         2.58810
O          6.01937        -3.35162        -1.73119
H          5.19403        -3.76894        -2.05393
O         -3.73680         8.50806         2.24148
H         -2.85362         8.07618         2.37069
O         -1.97210        -7.48977         2.17881
H         -1.60105        -6.69216         2.63693
O         -6.85567        -3.49378         2.22486
H         -6.04310        -3.43819         2.78111
O         -1.76087        -2.63568         2.00217
O         -7.92719         2.75834        -2.40861
H         -7.11369         2.39999        -2.83867
O         -4.46674        -2.79365         2.07276
O         -8.09437        -1.58677        -1.80267
H         -7.32537        -1.89111        -2.33360
O          4.14946         3.75281        -2.34250
H          3.45025         4.32329        -2.73589
O         -2.84366         7.36303        -2.15798
H         -1.99459         7.67653        -2.55983
O         -5.48004        -1.56291        -1.40231
O         -1.82164         5.12775         0.61480
O         -2.97828        -5.12832        -0.55757
O          0.59311        -6.90079        -1.39059
O         -2.68614         1.99099        -2.53130
O          4.29765        -7.76100         1.71196
O         -0.55038         3.33124        -2.51505
O          6.39028        -0.07369        -1.26540
O         -0.49636         8.13929        -1.64493
O          2.17043         5.67064        -1.88539
O         -5.21187         1.99383        -2.39668
O          7.16029         3.30875        -1.45371
O          7.36524        -2.39310         1.51836
H         12.08603        -1.23854        -0.72714
H         12.14163         1.20038        -0.45128
H         11.02077         3.36667         0.15497
H          9.74686         5.63204         0.49993
H          8.41526         7.73590         0.87269
H          7.11118         9.82946         1.18004
H          4.99119        11.06071         1.08420
H          2.42735        11.00954         0.77095
H         -0.04230        10.90563         0.74990
H         -2.48335        10.76373         1.10023
H         -5.02102        10.82935         0.95495
H         -7.16619         9.67399         0.51342
H         -8.39247         7.55567         0.33422
H         -9.63515         5.47180         0.23470
H        -10.88968         3.36306         0.24052
H        -12.15402         1.22585         0.22963
H        -12.22629        -1.23364         0.24724
H        -10.97714        -3.43013        -0.03084
H         -9.65887        -5.63430         0.22271
H         -8.33531        -7.73496         0.02533
H         -7.01537        -9.77272        -0.35339
H         -4.91498       -11.01619        -0.07407
H         -2.35186       -10.98461         0.23536
H         -0.01392       -10.90984        -0.35914
H          2.44562       -10.83939        -0.94634
H          4.87462       -10.81661        -1.06584
H          7.02315        -9.74565        -0.71342
H          8.35676        -7.58334        -0.46837
H          9.45467        -5.49833        -0.91310
H         10.75615        -3.34683        -0.87452
