         404
 CSIRO Nanostructure Databank - Neutral Graphene Oxide Data Set
C          1.27614         4.14110        -3.01836
C          0.07125         4.71262        -2.53062
C          1.21622         6.81440        -1.96026
C          0.02528         5.96021        -1.96290
C          1.16786         8.22830        -1.34383
C          0.15719         8.47297        -0.25089
C          1.34462        10.52836         0.34791
C          0.20279         9.64799         0.43049
C          1.31134        11.90344         0.81624
C          0.07742        12.59312         0.94616
C          1.24662        14.69368         1.38819
C          0.05274        13.94540         1.22175
C          1.21773        16.13011         1.56414
C         -0.01285        16.83268         1.61058
C          1.13559        18.98195         1.66246
C         -0.05226        18.21160         1.64460
C          1.07138        20.43365         1.57536
C         -0.07822        21.13539         1.30847
C          1.08271        23.28718         1.02187
C         -0.07819        22.56508         1.15934
C          1.11449        24.72317         0.79631
C         -0.10494        25.43068         0.47519
C          1.03585        27.61057         0.50430
C         -0.14202        26.77211         0.26005
C          1.00863        29.03821        -0.00805
C          0.11619        29.86361         0.89520
C          1.28828        31.91707         0.30486
C          0.25610        31.20173         1.02313
C          1.34109        33.35119         0.29422
C          0.37356        34.17823         0.94810
C          1.57574        36.22236         0.33542
C          0.48009        35.55473         0.95174
C          1.71792        37.64445         0.35185
C          3.68321         4.07019        -3.36581
C          2.53521         4.70471        -2.78469
C          3.76451         6.79023        -1.72878
C          2.55131         6.10834        -2.24006
C          3.72956         8.16466        -1.28576
C          2.52338         8.77592        -0.93132
C          3.78698        10.67159         0.04448
C          2.54416        10.00468        -0.20164
C          3.76883        11.76478         1.09106
C          2.51352        12.61159         1.03891
C          3.71357        14.76143         1.52159
C          2.50035        14.00603         1.33874
C          3.69723        16.17014         1.61191
C          2.43066        16.87775         1.63782
C          3.62156        19.07667         1.78371
C          2.38419        18.30233         1.70822
C          3.58911        20.45835         1.76991
C          2.31228        21.25287         1.85329
C          3.61677        23.34169         1.25448
C          2.38229        22.50642         0.97171
C          3.59430        24.74152         1.00652
C          2.33429        25.41351         0.78981
C          3.61138        27.57416         0.34518
C          2.35061        26.88683         0.70180
C          3.57728        28.95519        -0.16495
C          2.36579        29.68952        -0.20556
C          3.18890        31.85378        -1.19329
C          2.28627        31.14146        -0.37866
C          3.33955        33.26275        -1.14939
C          2.41733        34.01815        -0.36718
C          3.72228        36.06297        -0.87763
C          2.56707        35.43595        -0.31961
C          3.85452        37.48786        -0.83192
C          2.80602        38.25652        -0.22405
C          6.25290         4.24837        -3.51987
C          4.99834         4.32022        -2.91681
C          6.23742         6.82411        -1.74820
C          4.98141         6.14501        -1.66515
C          6.19820         8.20592        -1.38075
C          4.98722         8.83368        -1.04189
C          6.22689        10.89434        -0.25709
C          4.98518        10.14276        -0.42697
C          6.24995        12.06768         0.45237
C          5.05646        12.57536         1.17190
C          6.24876        14.84379         1.37814
C          5.01039        14.04801         1.50513
C          6.18805        16.25763         1.53152
C          4.92447        16.92744         1.63676
C          6.08651        19.09152         1.65283
C          4.89524        18.36373         1.73502
C          6.13166        20.53076         1.89393
C          4.80548        21.26794         1.93431
C          6.05459        23.42392         1.56109
C          4.81749        22.70588         1.57821
C          6.05262        24.83102         1.30889
C          4.80016        25.49131         1.02995
C          6.10521        27.50762         0.40269
C          4.78447        26.86715         0.58500
C          6.12293        28.90731        -0.06271
C          4.85464        29.56782        -0.45342
C          6.20277        31.53627        -1.15963
C          5.03795        30.72196        -1.22306
C          6.30217        32.80740        -1.74763
C          4.43521        33.93445        -1.75899
C          6.04228        35.85973        -1.81259
C          4.74708        35.27933        -1.49399
C          6.11304        37.31731        -1.84551
C          4.99345        38.08153        -1.39510
C          8.68789         4.43175        -3.42174
C          7.43157         4.92046        -3.00012
C          8.66973         6.90706        -2.15506
C          7.38775         6.17303        -2.26159
C          8.72190         8.34056        -1.72221
C          7.41078         9.03046        -1.51080
C          8.83637        11.06576        -0.82893
C          7.43563        10.43008        -0.99292
C          8.77146        12.35362        -0.04126
C          7.45756        12.91056         0.43660
C          8.70631        14.91949         1.13607
C          7.46940        14.21133         1.13173
C          8.66425        16.33695         1.31528
C          7.40615        16.97711         1.41667
C          8.63839        19.21406         1.28180
C          7.33432        18.42569         1.27867
C          8.59213        20.64689         1.59491
C          7.36363        21.31177         1.67161
C          8.54202        23.45380         1.58985
C          7.31320        22.73483         1.66856
C          8.53105        24.87722         1.42218
C          7.29466        25.53857         1.30531
C          8.57151        27.69549         0.87466
C          7.25793        27.04259         1.26800
C          8.58887        29.05939         0.54088
C          7.29818        29.75511         0.30056
C          8.57747        31.85976        -0.40130
C          7.31066        31.13788        -0.27644
C          8.59989        33.13247        -0.96827
C          7.36001        33.71208        -1.48990
C          8.52571        35.80548        -2.07350
C          7.24391        35.11370        -1.79524
C          8.54897        37.30817        -2.41196
C          7.29161        37.99591        -2.17494
C         11.21321         4.41154        -3.32671
C          9.94096         4.96408        -2.96171
C         11.12482         6.62176        -1.47359
C          9.90842         6.12924        -2.18234
C         11.07935         8.06946        -1.04971
C          9.92245         8.84661        -0.98598
C         11.08556        10.64543         0.29709
C          9.94014        10.13723        -0.38217
C         11.13678        12.04797         0.80210
C         10.00160        12.85613         0.60630
C         11.18298        14.90410         1.24780
C          9.95549        14.22794         1.00458
C         11.16679        16.37057         1.27082
C          9.88561        17.08485         1.34732
C         11.06291        19.21612         1.82902
C          9.89469        18.48265         1.47617
C         11.04278        20.62340         1.90563
C          9.81489        21.34713         1.72231
C         11.02304        23.47422         1.62988
C          9.78501        22.76663         1.69382
C         11.01447        24.88064         1.35941
C          9.78590        25.58312         1.28077
C         11.03017        27.67986         0.75437
C          9.79514        26.99133         0.98348
C         11.04366        29.08313         0.48121
C          9.80613        29.76365         0.38052
C         11.10500        31.94869        -0.07546
C          9.78186        31.23127         0.16076
C         11.07327        33.26935        -0.73834
C          9.83981        33.84938        -1.06077
C         11.06306        36.02209        -1.63262
C          9.78113        35.26787        -1.45701
C         11.05172        37.35016        -2.30397
C          9.83879        38.01733        -2.44957
C         13.68201         4.63804        -3.52773
C         12.42035         5.09546        -3.04462
C         13.53284         7.02687        -1.96995
C         12.38881         6.26990        -2.20926
C         13.53143         8.10289        -1.02956
C         12.28647         8.63813        -0.58102
C         13.44097        10.02464         0.98580
C         12.24102         9.79955         0.24959
C         13.42977        12.05416         1.91846
C         12.30937        12.72112         1.38394
C         13.55020        14.85791         1.98157
C         12.36456        14.17129         1.46624
C         13.53583        16.24171         2.21059
C         12.42463        17.08719         1.78353
C         13.46522        19.24715         2.84257
C         12.25220        18.48100         2.30968
C         13.46446        20.71842         2.52053
C         12.26846        21.35425         2.10375
C         13.46591        23.46158         1.56149
C         12.24746        22.76776         1.79138
C         13.47928        24.84136         1.18277
C         12.25542        25.56486         1.12298
C         13.50283        27.62536         0.58453
C         12.26180        26.95497         0.81047
C         13.52401        29.03579         0.28160
C         12.30611        29.76419         0.23088
C         13.53605        31.78316        -0.51418
C         12.33850        31.14587        -0.12358
C         13.54794        33.18148        -0.89764
C         12.31502        33.92054        -1.01183
C         13.52121        35.91135        -1.82601
C         12.33354        35.27219        -1.50490
C         13.52146        37.24812        -2.38561
C         12.30029        37.93677        -2.60413
C         16.14898         4.91395        -3.70526
C         14.87165         5.36753        -3.31900
C         16.07008         7.42287        -2.24060
C         14.77234         6.69271        -2.68137
C         15.98905         8.42290        -1.16005
C         14.75484         8.73199        -0.61536
C         15.91084        10.01042         1.16642
C         14.68049         9.59117         0.54550
C         15.89738        11.93712         2.36300
C         14.68445        12.67343         2.19904
C         15.97371        14.67170         2.70334
C         14.74976        14.09101         2.27987
C         15.86492        16.05103         3.23694
C         14.61250        16.89377         2.97177
C         15.83403        18.91657         3.62481
C         14.69809        18.39641         3.04809
C         15.87725        21.12999         3.05473
C         14.66942        21.50032         2.42451
C         15.92068        23.36490         1.33197
C         14.69114        22.77207         1.74701
C         15.95631        24.74074         0.90867
C         14.72381        25.50495         0.94343
C         15.98107        27.65046         0.68810
C         14.71387        26.89719         0.67840
C         16.00803        29.02247         0.14242
C         14.76836        29.69819        -0.01303
C         15.99256        31.68787        -0.82007
C         14.76764        31.05806        -0.45709
C         15.99127        33.06563        -1.23286
C         14.77067        33.80003        -1.22378
C         16.01504        35.79196        -2.15345
C         14.82401        35.29968        -1.38251
C         15.97311        37.10250        -2.72534
C         14.74262        37.82716        -2.77256
C         18.63782         4.92904        -3.52016
C         17.34136         5.50710        -3.20277
C         18.40715         6.97831        -1.48383
C         17.29311         6.64431        -2.37240
C         18.44524         8.24848        -0.74700
C         17.24217         9.17018        -0.76399
C         18.34168        10.48655         1.16397
C         17.13441         9.92968         0.55173
C         18.34429        11.59630         2.09990
C         17.18000        12.50374         2.40250
C         18.43110        14.64361         3.05855
C         17.21385        13.93040         2.72849
C         18.43342        16.08848         3.42414
C         17.11933        16.77310         3.59619
C         18.32505        18.89849         3.75066
C         17.10536        18.23798         3.66507
C         18.36942        21.06823         3.02047
C         17.11645        21.63614         2.62973
C         18.33934        22.82756         0.93154
C         17.11604        22.61117         1.58591
C         18.36652        24.73661         0.23525
C         17.18193        25.41054         0.62351
C         18.55983        27.56552         0.42970
C         17.27115        26.87451         0.78226
C         18.48871        28.91197        -0.17560
C         17.23173        29.62374        -0.24481
C         18.43338        31.58293        -1.18855
C         17.21763        30.96356        -0.75855
C         18.42067        32.93317        -1.67365
C         17.20330        33.67764        -1.66709
C         18.38695        35.59717        -2.73476
C         17.19307        35.03327        -2.17849
C         18.35420        36.92008        -3.28096
C         17.14263        37.64706        -3.28283
C         19.78606         5.34749        -2.92938
C         20.94819         6.97232        -1.31568
C         19.75964         6.25732        -1.77500
C         20.85226         8.01781        -0.44986
C         19.59648         8.66785        -0.11224
C         20.77802        10.21756         1.40278
C         19.57139         9.83609         0.79732
C         20.78514        11.19494         2.38564
C         19.59448        11.84369         2.71096
C         20.87141        14.79652         3.40928
C         19.65877        14.05700         3.37829
C         20.88662        16.17140         3.22573
C         19.67198        16.90261         3.29649
C         20.73342        19.18804         3.17638
C         19.59358        18.31378         3.42353
C         20.73789        20.48258         2.71705
C         19.58733        21.31087         2.38768
C         20.76708        23.04548         0.91134
C         19.61093        22.36735         1.37432
C         20.78864        24.36799         0.42368
C         19.68830        25.24118         0.29751
C         20.88945        27.33818        -0.55941
C         19.82375        26.73231         0.24695
C         20.83138        28.64860        -0.90642
C         19.65901        29.47559        -0.69767
C         20.83713        31.48180        -1.59861
C         19.65251        30.84501        -1.16933
C         20.82123        32.77989        -2.08586
C         19.62805        33.52430        -2.15824
C         20.76231        35.46630        -3.26197
C         19.61150        34.86767        -2.72202
C         20.72316        36.75983        -3.80684
C         19.54365        37.48310        -3.82072
O          6.48903        27.79368        -0.98202
O          5.28007        33.22514        -2.62571
O          8.91920         8.05017        -3.14375
O         16.67463        27.44741         1.98514
O         17.79953        16.20642         4.77570
O          7.94436        18.91541         0.01893
O         19.55925        27.43224         1.50406
O         10.30003        36.11431        -0.36226
O         19.71135        12.72978         3.78774
O         14.83877        16.22204         4.26589
O          8.58892        36.22820        -3.45026
O          3.98938        31.12454        -2.07912
O          7.16681        10.17303        -2.40668
O         18.34361        20.24035         4.14950
O         10.44578        31.97487         1.23909
O          6.94784        30.87056         1.16177
O         15.82913        20.22844         4.10872
O          1.87820         6.94037        -3.26852
O         18.87693         5.82873        -0.69952
O         12.13436        17.00105         0.35538
O          1.61476        27.51474         1.83389
O         15.81780        10.54030         2.46213
O         15.36251         7.76706        -3.47163
O          5.51220        20.94078         3.17854
O         13.32958        10.69502         2.20947
O          8.01972        13.27424        -0.90692
O         12.41902        18.73108         3.74079
O          5.01834         4.76010        -1.57340
O         18.24742        23.44952        -0.32888
O          5.24874        13.00891         2.56483
O          2.22630        21.72884         3.22671
H          2.35933        20.96591         3.82688
O         11.14964         5.86193        -0.19005
H         12.03248         6.00652         0.21371
O         15.02970        35.81654        -0.00287
H         14.23886        35.56310         0.52089
O          3.67431        11.01102         2.34582
H          4.04964        11.60022         3.04268
O         17.49155        10.14723        -1.83329
H         18.30916        10.63418        -1.59652
O          9.29451        11.44454        -2.14987
H          8.67641        12.13453        -2.47977
O          0.36733        28.98058        -1.32143
H          0.37258        29.88760        -1.69395
O          0.72656         9.09628        -2.44140
H          1.21215         8.78758        -3.24155
O          2.53878        22.03852        -0.40107
H          2.50243        22.81759        -0.99452
O          6.94119        27.50157         2.61731
H          7.65337        27.20089         3.21967
H          1.22564         3.15655        -3.50579
H         -0.84920         4.11388        -2.58940
H         -0.90722         6.32478        -1.51077
H         -0.70448         7.80066        -0.13054
H         -0.61064         9.90740         1.12512
H         -0.86645        12.05480         0.78346
H         -0.92306        14.44416         1.28240
H         -0.96416        16.28588         1.59686
H         -1.02938        18.71259         1.65648
H         -1.04159        20.61877         1.18862
H         -1.05666        23.06438         1.11532
H         -1.01918        24.84520         0.30482
H         -1.04704        27.24627        -0.14549
H         -0.68913        29.34033         1.43168
H         -0.43512        31.75858         1.67119
H         -0.48379        33.71576         1.45603
H         -0.28853        36.15631         1.45868
H          0.93820        38.24953         0.83695
H          3.50945         3.37869        -4.20505
H          2.89848        39.35217        -0.20399
H          6.36806         3.69462        -4.46409
H          5.07288        39.17942        -1.40986
H          8.71035         3.53728        -4.06223
H          7.32809        39.08596        -2.02556
H         11.24227         3.50545        -3.95012
H          9.83508        39.08018        -2.73557
H         13.72901         3.68206        -4.07150
H         12.32932        38.94201        -3.05012
H         16.23332         3.97969        -4.28095
H         14.74256        38.83721        -3.20879
H         18.67849         4.18717        -4.33172
H         17.11756        38.65555        -3.72154
H         20.76186         4.98964        -3.29069
H         21.93413         6.64793        -1.68061
H         21.79321         8.46703        -0.10745
H         21.72320         9.72038         1.15954
H         21.70538        11.45405         2.92350
H         21.81224        14.25091         3.56126
H         21.84867        16.69998         3.18401
H         21.72272        18.70708         3.23601
H         21.72417        20.89890         2.45626
H         21.74774        22.60484         1.14765
H         21.78913        24.81832         0.32182
H         21.73588        26.71520        -0.88264
H         21.66920        29.06748        -1.47980
H         21.79968        30.95690        -1.54985
H         21.76969        33.22253        -2.41699
H         21.71939        34.92827        -3.26924
H         21.64187        37.19654        -4.22266
H         19.51422        38.49739        -4.24353
