         204
 CSIRO Nanostructure Databank - Neutral Graphene Oxide Data Set
C        -11.14592         0.62291         0.19548
C        -10.03909         1.39302        -0.46690
C         -8.72602         0.64218        -0.49099
C         -7.51920         1.38581        -0.65137
C         -6.28691         0.68670        -0.87663
C         -5.06505         1.44660        -1.06504
C         -3.83663         0.74426        -1.60209
C         -2.54914         1.46075        -1.24661
C         -1.28559         0.74843        -1.51265
C         -0.00088         1.43438        -1.34419
C          1.22197         0.73587        -1.42430
C          2.45758         1.47498        -1.55205
C          3.76727         0.81653        -1.46093
C          4.97593         1.53456        -1.23758
C          6.27173         0.82387        -1.23029
C          7.50243         1.44245        -0.68532
C          8.70696         0.69271        -0.56985
C          9.91402         1.34620        -0.08757
C         11.14171         0.57544        -0.01427
C         -9.90506         2.78490         0.07042
C         -8.70953         3.48754        -0.07620
C         -7.52998         2.79796        -0.52836
C         -6.33629         3.60108        -0.94735
C         -5.05511         2.81030        -0.96095
C         -3.80953         3.60147        -1.28653
C         -2.53824         2.81666        -1.07713
C         -1.28876         3.55010        -1.02735
C         -0.06211         2.84816        -1.22193
C          1.11513         3.58653        -1.51357
C          2.29872         2.85133        -1.82318
C          4.15745         3.90600        -1.33862
C          5.08215         2.94752        -0.91422
C          6.23688         3.48328        -0.22510
C          7.45369         2.75956        -0.19877
C          8.71196         3.53300         0.10919
C          9.90243         2.65695         0.32473
C         -8.61960         4.87177         0.26407
C         -7.39457         5.57729         0.21306
C         -6.21307         4.93793        -0.26118
C         -4.97202         5.61761        -0.24644
C         -3.75929         4.97249        -0.65041
C         -2.52923         5.63260        -0.52513
C         -1.28457         4.94674        -0.81038
C         -0.05408         5.68315        -0.86906
C          1.03268         5.00524        -1.45642
C          2.90920         6.01630        -0.89753
C          4.02814         5.17588        -0.70872
C          5.01266         5.55843         0.25264
C          6.18380         4.77556         0.37107
C          7.29300         5.27662         1.16662
C          8.50209         4.61071         1.13325
C         -7.32536         6.93348         0.64512
C         -6.12151         7.63250         0.63189
C         -4.91381         6.97370         0.21776
C         -3.67722         7.66923         0.24438
C         -2.46561         7.00780        -0.11490
C         -1.20780         7.68534        -0.01124
C          0.03566         7.05001        -0.35197
C          1.26706         7.68183         0.03903
C          2.58641         7.07030        -0.02183
C          3.64977         7.52001         0.83832
C          4.85338         6.78482         0.95612
C          5.92562         7.23281         1.81653
C          7.09053         6.48529         1.92344
C         -6.06521         9.01697         1.03474
C         -4.88556         9.69599         1.04079
C         -3.65323         9.04482         0.67144
C         -2.43620         9.70234         0.77145
C         -1.21332         9.03275         0.48977
C          0.00158         9.65404         0.81662
C          1.21254         8.95258         0.71851
C          2.35251         9.49599         1.38856
C          3.51989         8.76543         1.54509
C          4.61363         9.22111         2.37143
C          5.75200         8.48532         2.51531
C        -11.07341        -0.70873         0.35043
C         -9.90798        -1.47948        -0.07301
C         -8.70664        -0.76409        -0.50353
C         -7.48221        -1.46222        -0.74648
C         -6.27565        -0.72909        -0.90333
C         -5.02142        -1.44535        -1.09170
C         -3.80575        -0.74508        -1.31952
C         -2.57035        -1.43626        -1.33929
C         -1.27752        -0.74519        -1.58341
C          0.01824        -1.43434        -1.42955
C          1.23010        -0.72329        -1.39181
C          2.50440        -1.38933        -1.22322
C          3.75913        -0.64548        -1.28374
C          4.95120        -1.35418        -1.07497
C          6.25401        -0.72521        -1.24485
C          7.49266        -1.43319        -0.87111
C          8.70603        -0.73058        -0.71999
C          9.93353        -1.47352        -0.54737
C         11.15898        -0.75579        -0.27703
C         -9.90350        -2.83254         0.10379
C         -8.77456        -3.66401        -0.32238
C         -7.46912        -2.93798        -0.81734
C         -6.19558        -3.68524        -0.76780
C         -5.02630        -2.87465        -1.09106
C         -3.80265        -3.47340        -1.44580
C         -2.56038        -2.84162        -1.32451
C         -1.30936        -3.58707        -0.98850
C         -0.00914        -2.90884        -1.35529
C          1.28396        -3.60243        -1.05274
C          2.52844        -2.79614        -0.95923
C          3.70416        -3.48916        -0.64658
C          4.96241        -2.70981        -0.41059
C          6.22207        -3.52317        -0.63337
C          7.46143        -2.84823        -0.73064
C          8.69671        -3.58114        -0.63777
C          9.92363        -2.85967        -0.58894
C         -8.58086        -4.94738         0.31520
C         -7.36675        -5.61603         0.29463
C         -6.17364        -5.03602        -0.32207
C         -4.96648        -5.84184        -0.16072
C         -3.75791        -5.52448        -0.81891
C         -2.49289        -5.89445        -0.36619
C         -1.28301        -5.03066        -0.54942
C          0.04627        -5.78236        -0.56200
C          1.22339        -4.85941        -0.20082
C          2.52098        -5.62534        -0.20959
C          3.72017        -4.90848        -0.38058
C          4.96377        -5.61346        -0.24638
C          6.20571        -4.91937        -0.44193
C          7.43914        -5.65984        -0.37564
C          8.66414        -4.97777        -0.49697
C         -7.28683        -6.84575         1.04029
C         -6.09110        -7.48591         1.30546
C         -4.88529        -6.95154         0.72608
C         -3.63242        -7.57328         0.99684
C         -2.42408        -6.99391         0.52370
C         -1.14666        -7.57611         0.84255
C          0.04469        -6.99334         0.36516
C          1.28417        -7.61619         0.61541
C          2.51925        -6.96942         0.23357
C          3.74956        -7.65513         0.40507
C          4.96975        -6.98644         0.10293
C          6.21564        -7.70400         0.20835
C          7.41024        -7.05193        -0.07392
C         -5.99908        -8.68031         2.11434
C         -4.80097        -9.28418         2.35542
C         -3.56459        -8.75105         1.82749
C         -2.33501        -9.34620         2.08994
C         -1.10831        -8.79958         1.59230
C          0.12800        -9.44912         1.77181
C          1.32536        -8.88979         1.27638
C          2.57579        -9.56981         1.38830
C          3.75960        -8.99438         0.93051
C          5.02325        -9.68880         1.00749
C          6.18709        -9.08206         0.63713
O          9.01503         4.26458        -1.16342
H          9.09698         3.58436        -1.86677
O         -3.82194        -4.75953        -1.98290
O         -3.87038         3.81132        -2.75045
H         -3.86756         2.90192        -3.14904
O         -3.93757         0.90510        -3.06542
H         -3.10129         0.51520        -3.42960
O         -1.35044         0.04933        -2.84456
O          0.28843        -6.27752        -1.89566
H         -0.41607        -6.91813        -2.12405
O          2.07615         5.76749        -1.99602
O         -1.32791        -3.94580         0.44972
O         -6.58057         3.93836        -2.37601
H         -5.69239         4.14693        -2.76795
O          3.33827         3.57341        -2.42557
O          4.97322        -2.40986         1.05156
H          4.81804        -3.25923         1.51861
O          6.45657         0.06106        -2.46208
O          0.73050        -3.63895        -2.40001
O         -8.43781        -3.53590        -1.73213
O        -10.44129         1.55762        -1.88275
H         -9.72335         2.05694        -2.32913
O          1.07444        -4.38802         1.16358
H          0.84234        -5.15534         1.72836
H         12.09661        -1.32734        -0.21381
H         12.06642         1.10331         0.26155
H         10.83398         3.12415         0.67903
H          9.36320         4.98355         1.70741
H          7.91294         6.85218         2.55616
H          6.56770         8.84474         3.15988
H          4.50115        10.17935         2.89982
H          2.24594        10.47104         1.88742
H         -0.00930        10.65226         1.27860
H         -2.40059        10.74041         1.13393
H         -4.84747        10.75087         1.34953
H         -6.99948         9.51408         1.33400
H         -8.24464         7.43531         0.98203
H         -9.52152         5.38908         0.62280
H        -10.81239         3.31578         0.39601
H        -12.04557         1.17598         0.50414
H        -11.90756        -1.26572         0.80405
H        -10.76024        -3.32698         0.58670
H         -9.38255        -5.32087         0.97069
H         -8.22158        -7.24896         1.45857
H         -6.92541        -9.09746         2.53624
H         -4.75454       -10.19143         2.97591
H         -2.29572       -10.26371         2.69624
H          0.16053       -10.41716         2.29358
H          2.59773       -10.57162         1.84288
H          5.02927       -10.72728         1.37009
H          7.14003        -9.62841         0.69760
H          8.36195        -7.59984        -0.00346
H          9.60712        -5.53635        -0.40237
H         10.86701        -3.41647        -0.48624
