         294
 CSIRO Nanostructure Databank - Neutral Graphene Oxide Data Set
C          1.10899         2.36411        -0.78826
C          1.01013         3.43731         0.04466
C          2.37214         1.80730        -1.12530
C          2.18080         4.16600         0.65842
C          1.04039         6.42845         0.03884
C          1.01729         7.76452         0.17695
C          2.30155         5.58211         0.00237
C          2.23688         8.62330         0.47309
C          1.10280        10.90188         0.33921
C          1.12381        12.21706         0.09434
C          2.21216        10.02303        -0.19487
C          2.30061        12.83336        -0.64230
C          1.22396        15.10495        -0.70321
C          1.22768        16.53655        -0.61858
C          2.33998        14.34668        -0.46761
C          2.34531        17.25344        -0.25083
C          2.39550        18.69841        -0.30929
C          3.55568         2.30975        -0.58331
C          3.54624         3.40054         0.48185
C          4.78520         1.70489        -0.88458
C          4.78874         4.28008         0.33306
C          3.45803         6.37669         0.65929
C          3.49287         7.82789         0.03500
C          4.77257         5.62996         0.54469
C          4.77491         8.58388         0.26983
C          3.55441        10.75328        -0.02393
C          3.57123        12.10850        -0.20382
C          4.79714         9.97005         0.15864
C          4.87375        12.84582        -0.41132
C          3.55740        15.02258         0.01921
C          3.54737        16.52987         0.20408
C          4.86874        14.33905        -0.09848
C          4.87948        17.28592         0.38938
C          3.56156        19.39155        -0.19924
C          4.85049        18.72551        -0.10164
C          6.03249         2.25154        -0.46438
C          6.04748         3.57974         0.08816
C          7.24306         1.56153        -0.72878
C          7.29001         4.23914         0.23284
C          5.99888         6.43082         0.95804
C          6.03621         7.75040         0.12811
C          7.36235         5.56144         0.98561
C          7.31200         8.54012         0.49456
C          6.05261        10.68431         0.15097
C          6.00224        12.17425         0.36468
C          7.29605        10.02635         0.18481
C          7.33060        12.85990         0.09577
C          6.03221        15.04803        -0.07417
C          6.03477        16.55307        -0.34964
C          7.33605        14.33237        -0.08586
C          7.38305        17.29373        -0.07975
C          5.99058        19.38227        -0.44330
C          7.33809        18.73234        -0.68916
C          8.48966         2.17268        -0.50432
C          8.47355         3.51420        -0.01168
C          9.74870         1.52353        -0.83054
C          9.75544         4.23509        -0.15761
C          8.70696         6.45061         0.62253
C          8.53712         7.82145        -0.07258
C          9.79039         5.70769        -0.14928
C          9.82237         8.61664         0.18095
C          8.50306        10.70582         0.45332
C          8.52594        12.15474         0.64325
C          9.72499         9.96954         0.81762
C          9.84239        12.89760         0.80524
C          8.59324        15.10540         0.17656
C          8.61494        16.45170        -0.46044
C          9.86745        14.36556         0.46504
C          9.82789        16.94379        -0.83359
C          8.51196        19.54127        -0.13045
C          9.78004        19.22538        -0.48791
C         10.99563         2.11090        -0.63549
C         11.02569         3.46919        -0.05261
C         12.26790         1.50107        -0.86484
C         12.32131         4.17179         0.25924
C         11.16854         6.39331        -0.27425
C         11.10835         7.89246         0.05740
C         12.29981         5.69007         0.54832
C         12.35183         8.49169         0.63117
C         11.03763        10.70444         1.11773
C         11.11725        12.14847         0.80646
C         12.32892         9.91366         1.10119
C         12.31888        12.78236         0.47920
C         11.14327        14.91454        -0.04968
C         11.10224        16.25067        -0.63301
C         12.30905        14.16675         0.00573
C         12.28504        16.90158        -0.88383
C         11.05421        19.67729         0.07200
C         12.24082        19.11378        -0.28052
C         13.48328         2.15988        -0.66099
C         13.57735         3.50592        -0.18192
C         14.75174         1.40091        -1.01570
C         14.81207         4.19173        -0.15057
C         13.59297         6.36250         0.18624
C         13.58636         7.85696         0.01823
C         14.88428         5.62960         0.37564
C         14.85566         8.51103         0.49536
C         13.60581        10.72484         1.32857
C         13.60239        12.12215         0.73317
C         14.87466         9.92817         0.95310
C         14.80012        12.79365         0.68060
C         13.59596        14.77460        -0.44716
C         13.60355        16.26020        -0.74211
C         14.88144        14.09366        -0.02159
C         14.81646        17.11885        -0.45327
C         13.55988        19.28897         0.44545
C         14.76948        18.60471        -0.19527
C         16.04728         2.13136        -0.72796
C         16.01916         3.53941        -0.50916
C         17.23730         1.39765        -0.66238
C         17.30925         4.26649        -0.52890
C         16.03245         6.37885        -0.32881
C         16.09836         7.87778        -0.04732
C         17.36631         5.69747        -0.12583
C         17.37904         8.56950         0.25295
C         16.09611        10.73106         0.51589
C         16.08228        12.11301         1.16983
C         17.38656         9.98048         0.68317
C         17.38798        12.81622         0.85011
C         16.13210        14.91322         0.14809
C         16.09850        16.41108        -0.03108
C         17.32019        14.29799         0.84263
C         17.20719        17.24166         0.55124
C         15.91523        19.30381        -0.36865
C         17.22427        18.66433        -0.73119
C         18.50088         1.99656        -0.39814
C         18.57464         3.47224        -0.43220
C         19.70649         1.31221        -0.22334
C         19.73466         4.12797         0.29403
C         18.53624         6.33371         0.13361
C         18.59571         7.76612         0.62642
C         19.86585         5.62325        -0.05764
C         19.84179         8.53370         0.16415
C         18.61825        10.66292         0.81764
C         18.57422        12.14403         0.88708
C         19.83904         9.95946         0.70545
C         19.89721        12.89261         1.03079
C         18.58894        15.08714         0.79293
C         18.56053        16.57354         0.52113
C         19.84759        14.34704         0.57271
C         19.77250        17.22566        -0.07346
C         18.43617        19.34170        -0.35827
C         19.77763        18.68679        -0.59190
C         20.94770         2.00408        -0.08257
C         21.02348         3.37483         0.09425
C         22.25218         4.12511         0.21113
C         21.04258         6.28147         0.71070
C         21.12489         7.76869         0.39676
C         22.29205         5.46475         0.44689
C         22.30899         8.49737         0.24312
C         21.17171        10.66393         0.87481
C         21.02289        12.10679         0.30530
C         22.31510         9.88517         0.26274
C         22.29118        12.92210         0.21985
C         20.94070        14.95994         0.01297
C         20.83487        16.30759        -0.56837
C         22.21609        14.24283        -0.03654
C         21.50766        16.64176        -1.70958
C         20.28519        18.74608        -2.01516
C         21.16619        17.82868        -2.46776
O         15.05758         8.83512         1.90534
O          9.50304         5.04867        -1.41602
O         14.37758        13.99978        -1.39517
O          3.31243        15.64432         1.35018
O         10.62279         8.71775        -1.05915
O          7.53273         5.12108         2.30067
O          7.53544        13.40778        -1.23414
O         17.86408        14.86603         2.07982
O          9.17300        15.13952         1.52383
O         14.49334        16.72198        -1.82131
O         16.83744         8.51106        -1.14552
O         18.16151         4.01402        -1.72670
O         19.54980        17.23459         1.38416
O         16.59787        15.54573        -1.08952
O          8.98396        12.60775         1.95654
O          9.92442        18.19698        -1.46577
O         12.31604         8.77891         2.04233
O         11.59004         3.45713         1.31705
O         12.32027        18.21598        -1.36994
O         10.16214        10.22711         2.18138
O          5.74094        16.61419        -1.76555
H          6.26233        17.35005        -2.17879
O         20.58188        11.89778        -1.06414
H         20.53107        12.76976        -1.50997
O         17.28131        18.00626        -1.94937
H         16.40693        17.63431        -2.19594
O          2.17854        12.58248        -2.07388
H          2.02008        11.60476        -2.17119
O          2.26888         8.91187         1.87888
H          2.36811         8.04288         2.34569
O         12.08542         5.87695         1.96229
H         11.58365         5.08982         2.28641
O         14.74161         0.11090        -0.38715
H         14.64706         0.24244         0.57845
O          3.76045         2.68204         1.73750
H          4.72193         2.51677         1.84068
O         16.90290        17.77890         1.79382
H         17.75187        17.90403         2.27642
O         11.60844         6.29023        -1.64636
H         10.89832         5.80774        -2.14402
O          5.12207        12.70291        -1.83073
H          4.27756        12.90619        -2.29671
O         20.79701         6.22231         2.15166
H         20.42523         5.32295         2.34655
O          3.16384         6.49230         2.06689
H          4.03768         6.64641         2.52142
O          5.98419         7.31775        -1.26594
H          6.76112         7.67153        -1.76519
O          7.57759        17.51921         1.32517
H          7.58509        16.66242         1.80186
O         15.93709        11.00453        -0.90319
H         16.17565        10.17704        -1.39581
O         20.15410        12.95614         2.46229
H         19.40503        13.45600         2.86264
O         19.71790         8.68971        -1.28367
H         20.40738         9.32305        -1.57873
O          8.43861         7.65070        -1.49568
H          9.31982         7.89962        -1.87959
O         13.55654         8.19529        -1.40489
H         12.90541         7.58969        -1.84104
O         20.76658        19.36775         0.20935
H         20.64047        19.07702         1.13854
O          5.69660        12.36564         1.76802
H          6.33365        11.84694         2.30482
O         13.65701        10.91632         2.77031
H         13.55547        10.01691         3.16388
O         16.08540        12.02772         2.60380
H         15.23043        11.61652         2.90499
O         19.39593         4.02489         1.71844
H         19.43752         3.07604         1.96509
O          7.42132         8.57458         1.93349
H          8.14676         7.96688         2.23325
O          2.59868         5.26245        -1.37239
H          2.69403         6.11994        -1.85353
O          5.13769        17.33250         1.80274
H          4.58646        16.62579         2.21715
O         13.39495        18.72552         1.75627
H         14.22077        18.86538         2.26451
O          3.41147         7.70755        -1.42576
H          4.33937         7.50556        -1.73076
O          7.43930        18.66098        -2.13549
H          8.38106        18.45137        -2.35349
O          5.74050         6.77521         2.33309
H          6.34107         6.14203         2.84167
O         18.57765         7.74690         2.06915
H         19.38718         7.25649         2.37510
O         15.73536         6.23156        -1.73697
H         16.28216         6.89335        -2.21783
O          1.96084         9.89210        -1.62189
H          2.52589         9.14430        -1.94417
O         20.22612         5.73105        -1.44734
H         19.51250         5.28741        -1.96919
O          1.86702         4.30953         2.04610
H          2.44773         3.68604         2.54094
O          9.31510         6.72014         1.89888
H          8.85397         6.05053         2.51390
O         15.16595         5.57619         1.80380
H         14.31110         5.64702         2.28646
O         21.50981        10.70611         2.28307
H         20.94784        11.39650         2.71511
H          0.20040         1.89877        -1.19778
H          0.01175         3.80388         0.32771
H          2.41827         0.95001        -1.81412
H          0.08675         5.90713        -0.14629
H          0.04331         8.28033         0.14793
H          0.27166        10.43978         0.89218
H          0.31279        12.87044         0.45047
H          0.29895        14.61464        -1.03992
H          0.32022        17.07765        -0.92535
H          1.45287        19.23732        -0.48885
H          4.79492         0.81095        -1.52888
H          3.55549        20.48720        -0.30707
H          7.19630         0.54917        -1.15660
H          5.90887        20.43195        -0.77232
H          9.69983         0.50208        -1.23856
H          8.32350        20.30704         0.63474
H         12.29781         0.46433        -1.23295
H         11.03131        20.39523         0.90388
H         14.72856         1.20124        -2.12506
H         13.79729        20.38820         0.54430
H         17.17644         0.30273        -0.75553
H         15.93094        20.37900        -0.12303
H         19.71776         0.21386        -0.27194
H         18.37613        20.00995         0.51546
H         21.87690         1.41586        -0.12520
H         23.19737         3.57261         0.08808
H         23.27226         5.95424         0.54683
H         23.26790         7.97019         0.11370
H         23.27935        10.40127         0.14459
H         23.26839        12.41883         0.22960
H         23.12818        14.83295        -0.20685
H         22.24470        15.94472        -2.13384
H         20.02030        19.61896        -2.62758
H         21.60800        17.93479        -3.46905
