         244
 CSIRO Nanostructure Databank - Neutral Graphene Oxide Data Set
C          1.29050         2.10688        -0.43876
C          1.23938         3.46665        -0.12572
C          2.49898         1.41773        -0.41880
C          2.40470         4.16908         0.26535
C          1.19464         6.37032         0.30620
C          1.20072         7.74406         0.24625
C          2.40147         5.62391         0.41818
C          2.42139         8.48842         0.24764
C          1.24803        10.62895        -0.25362
C          1.20660        11.98858        -0.23007
C          2.43687         9.88641         0.03140
C          2.35424        12.81139         0.28446
C          1.38363        14.82036        -0.98986
C          1.42815        16.20121        -1.34653
C          2.40310        14.22009        -0.29399
C          2.54178        16.98713        -1.08349
C          2.60092        18.38389        -1.45202
C          3.68964         2.07732        -0.02540
C          3.61698         3.44678         0.36647
C          4.94290         1.39498        -0.07771
C          4.82186         4.10703         0.89513
C          3.61178         6.34498         0.55950
C          3.64409         7.75844         0.47106
C          4.85211         5.63066         0.92295
C          4.90389         8.45089         0.56414
C          3.75888        10.60128        -0.11477
C          3.69489        12.09862         0.14199
C          4.86364         9.95869         0.72929
C          4.87194        12.78348         0.26496
C          3.59017        15.01817         0.04013
C          3.69957        16.39452        -0.46266
C          4.89504        14.26786         0.34808
C          4.90068        17.08896        -0.36409
C          3.73848        19.10481        -1.27158
C          4.94911        18.49292        -0.75564
C          6.15879         2.01387         0.26111
C          6.12393         3.36723         0.86672
C          7.39838         1.40333         0.03768
C          7.41086         4.16843         0.89897
C          6.15103         6.32942         0.78248
C          6.10630         7.75931         0.62305
C          7.36644         5.64501         0.80879
C          7.39096         8.46894         0.25915
C          6.18977        10.65575         0.49765
C          6.16640        12.09872         0.32928
C          7.38232         9.95746         0.52161
C          7.34421        12.81538         0.20328
C          6.14789        14.98181         0.07915
C          6.14506        16.39060        -0.09763
C          7.35970        14.25015        -0.00941
C          7.37900        17.08166        -0.21287
C          6.11167        19.20483        -0.64849
C          7.38394        18.59518        -0.12608
C          8.63942         2.09810         0.22043
C          8.65296         3.47222         0.54020
C          9.87495         1.43142        -0.00855
C          9.92902         4.14566         0.94547
C          8.63720         6.36748         0.79175
C          8.62679         7.75560         0.72471
C          9.89335         5.64813         0.82070
C          9.80932         8.56556         1.18377
C          8.64382        10.64706         0.48044
C          8.67142        12.16136         0.49207
C          9.84846         9.97442         0.59535
C          9.79692        12.65519        -0.41257
C          8.57003        14.93777        -0.26664
C          8.59357        16.36254        -0.31377
C          9.80878        14.17779        -0.55101
C          9.85974        17.07968        -0.38923
C          8.59828        19.22340        -0.82134
C          9.87871        18.50621        -0.47713
C         11.10987         2.13260        -0.00454
C         11.15382         3.51791         0.34366
C         12.30373         1.48320        -0.39162
C         12.34713         4.25846         0.21993
C         11.11506         6.33759         0.76549
C         11.12229         7.78391         1.08963
C         12.34855         5.67810         0.48440
C         12.40917         8.54071         0.91190
C         11.09870        10.70751         0.47547
C         11.11064        12.04799         0.08394
C         12.35919        10.01602         0.72291
C         12.33377        12.81052         0.01309
C         11.12090        14.91921        -0.56082
C         11.10211        16.38985        -0.34414
C         12.35946        14.15725        -0.29625
C         12.29904        17.10295        -0.22202
C         11.06159        19.21167        -0.36670
C         12.31094        18.54459        -0.13712
C         13.52076         2.19337        -0.48210
C         13.54420         3.60065        -0.20137
C         14.71554         1.53587        -0.86404
C         14.76360         4.33772        -0.38567
C         13.57312         6.42451         0.26581
C         13.58509         7.82597         0.39417
C         14.75833         5.74044        -0.15799
C         14.77524         8.67395        -0.01710
C         13.55102        10.67305         0.65873
C         13.61742        12.08125         0.26189
C         14.81349         9.89177         0.91969
C         14.88098        12.84315         0.58863
C         13.69964        14.88216        -0.34340
C         13.59649        16.41207        -0.28618
C         14.53311        14.32885         0.86442
C         14.81454        17.17419         0.12473
C         13.47468        19.26568         0.15523
C         14.69820        18.57777         0.68918
C         15.92792         2.24243        -1.01188
C         15.93720         3.65805        -0.82227
C         17.13125         1.54401        -1.32983
C         17.19314         4.40611        -1.18006
C         15.97621         6.53741        -0.58995
C         16.06315         7.89646         0.04120
C         17.25454         5.75554        -0.52705
C         17.22922         8.46789         0.43765
C         16.10307        10.66922         0.82709
C         16.12564        12.07325         0.98542
C         17.30271         9.90826         0.71294
C         17.39516        12.70474         1.00159
C         15.69964        15.19420         1.21345
C         15.95568        16.42781         0.71823
C         17.56210        14.09466         1.32224
C         17.22235        17.15881         0.94218
C         16.00823        19.27962         0.43575
C         17.21861        18.59457         0.54393
C         18.38681         2.19056        -1.23610
C         18.43145         3.58970        -0.98153
C         19.61607         1.46698        -1.31232
C         19.65351         4.22405        -0.65890
C         18.44578         6.30379        -0.08322
C         18.48893         7.65018         0.63009
C         19.66671         5.57681        -0.20404
C         19.76152         8.40945         0.28510
C         18.55207        10.55153         0.61264
C         18.59557        11.98306         0.68686
C         19.77804         9.82637         0.31052
C         19.74876        12.70462         0.35058
C         18.55997        14.88147         0.79965
C         18.56832        16.36001         0.88111
C         19.65068        14.15891         0.11470
C         19.74561        17.08407         0.35674
C         18.47245        19.22927         0.38051
C         19.70045        18.51439         0.29428
C         20.82659         2.10985        -1.11025
C         20.87387         3.47627        -0.75698
C         22.12522         4.15967        -0.53599
C         20.94025         6.18802         0.32524
C         20.95808         7.69214         0.10174
C         22.17459         5.44620        -0.11211
C         22.14048         8.39596        -0.16773
C         20.99657        10.52966         0.09874
C         21.08823        12.02290         0.38909
C         22.15586         9.79215        -0.16660
C         22.15949        12.79696        -0.34409
C         20.86525        14.92343        -0.33079
C         20.90604        16.39918        -0.08430
C         22.09781        14.11978        -0.56270
C         22.06221        17.13583        -0.38570
C         20.89740        19.22161        -0.00773
C         22.06439        18.53703        -0.30251
O         14.51944        17.05740        -1.28553
O         14.61657        12.37242        -0.76653
O         10.42843        14.56580        -1.83018
O          4.64797         4.83541         2.14560
O         18.00413        16.88734         2.12627
O          6.84557         3.52373         2.12464
O          4.08398        14.84624         1.42749
O         16.56835        14.63242         2.16383
O         11.97955         8.05837         2.25085
O         19.83140        14.56613        -1.32276
O          7.50659        18.94257         1.28831
H          6.74738        18.54094         1.76101
O         14.76327         9.34471         2.26366
H         14.80180        10.08133         2.90777
O          9.55300         8.78839         2.61103
H         10.43052         8.71691         3.06089
O         14.54482         9.15083        -1.36028
H         14.83698         8.43506        -1.97654
O          9.03732        12.56593         1.84756
H          8.40495        12.14878         2.46959
O         15.70824         6.80736        -2.02460
H         16.05469         6.01991        -2.53194
O         17.11121         4.64432        -2.68596
H         18.01366         4.89791        -2.97917
O         21.50253        12.09355         1.81099
H         20.91215        11.49724         2.32000
O         13.65676        14.33686         2.02724
H         14.21390        14.44029         2.82818
O         14.52160        18.40656         2.14132
H         14.58937        19.29054         2.55884
O          2.11364        12.97500         1.71621
H          2.80896        13.59649         2.04642
O          4.16917        10.41752        -1.50800
H          3.45428        10.76659        -2.08086
O         18.54160         7.37719         2.06119
H         19.39378         6.89680         2.22984
O          8.41948        19.17332        -2.24730
H          8.54231        18.24646        -2.53996
O         10.01139         3.87234         2.40907
H          9.10965         3.99086         2.78277
O         14.35421        14.56865        -1.57670
H         14.65582        15.41692        -1.98217
O         20.91203         6.02829         1.80711
H         20.87486         5.06439         1.98861
O          7.43941         8.36318        -1.21845
H          6.69524         8.89704        -1.57404
O          4.50383        10.19699         2.11738
H          5.13406         9.70963         2.68792
O          9.56422        12.11031        -1.72863
H         10.07120        12.67386        -2.35807
H          0.36910         1.58555        -0.73383
H          0.27549         3.98668        -0.20011
H          2.53949         0.35710        -0.70432
H          0.22921         5.84840         0.27109
H          0.24073         8.27039         0.16593
H          0.31827        10.08540        -0.47998
H          0.24511        12.48906        -0.41089
H          0.48140        14.25399        -1.25975
H          0.55954        16.64452        -1.85353
H          1.70249        18.85169        -1.88034
H          4.96177         0.36470        -0.46274
H          3.77549        20.16803        -1.55065
H          7.42543         0.37320        -0.34659
H          6.12730        20.27007        -0.92426
H          9.86718         0.36352        -0.27038
H          8.66401        20.30162        -0.53598
H         12.28323         0.41182        -0.63962
H         11.04770        20.31044        -0.42260
H         14.69358         0.45248        -1.05460
H         13.41260        20.36305         0.22808
H         17.09032         0.45863        -1.50169
H         16.01349        20.34039         0.13997
H         19.59178         0.39161        -1.53976
H         18.49492        20.31569         0.20644
H         21.76845         1.54787        -1.19421
H         23.05787         3.61131        -0.73965
H         23.15366         5.91031         0.07417
H         23.08274         7.85897        -0.34016
H         23.11253        10.30648        -0.33071
H         23.09395        12.26947        -0.58760
H         22.95979        14.62277        -1.02804
H         22.97873        16.61796        -0.69837
H         20.87858        20.32061        -0.02384
H         22.98608        19.09054        -0.52946
