         349
 CSIRO Nanostructure Databank - Neutral Graphene Oxide Data Set
C          1.33745         2.72978        -1.84595
C          1.24992         3.88716        -1.06812
C          2.56927         2.12596        -2.06055
C          2.39739         4.45946        -0.47880
C          1.12730         6.36204         0.55594
C          1.14577         7.69817         1.03631
C          2.29850         5.65571         0.34024
C          2.30459         8.38454         1.35722
C          1.35831        10.40561         0.15659
C          1.40759        11.67234        -0.36493
C          2.15976         9.93850         1.36184
C          2.34374        12.65690         0.06200
C          1.21364        14.67249        -0.96860
C          1.25363        15.98019        -1.39978
C          2.35325        14.03644        -0.34841
C          2.38911        16.81599        -1.18466
C          2.48063        18.14267        -1.63640
C          3.74518         2.67695        -1.49244
C          3.66895         3.85600        -0.68824
C          5.00316         2.06951        -1.73375
C          4.88227         4.41970        -0.11692
C          3.50564         6.12971         1.01745
C          3.48318         7.54514         1.65362
C          4.81144         5.55613         0.67450
C          4.81141         8.14521         1.96147
C          3.41502        10.79496         1.45055
C          3.39985        12.18559         0.96861
C          4.54701        10.45893         2.14984
C          4.75956        12.93242         0.91703
C          3.50833        14.81392        -0.14728
C          3.51475        16.24750        -0.43233
C          4.80583        14.15329         0.08561
C          4.81944        17.03229        -0.33811
C          3.66940        18.87486        -1.55710
C          4.86959        18.32693        -1.04403
C          6.18696         2.58785        -1.18887
C          6.16275         3.76212        -0.34736
C          7.42382         1.99346        -1.50730
C          7.36429         4.25187         0.19297
C          6.03345         6.10410         1.36716
C          6.02136         7.61836         1.61392
C          7.33902         5.53504         0.86267
C          7.25101         8.43393         1.18551
C          5.78556        11.15803         2.11003
C          6.01634        12.28040         1.32320
C          7.58092         9.82813         1.74438
C          7.30461        12.84651         0.99105
C          6.11658        14.85832         0.00315
C          6.14612        16.38182         0.08168
C          7.35141        14.14967         0.46135
C          7.38892        16.96635        -0.56703
C          6.09758        18.99472        -1.10651
C          7.35669        18.36898        -0.86625
C          8.65863         2.42327        -0.97768
C          8.64551         3.57071        -0.03896
C          9.79067         1.80067        -1.55920
C          9.78796         4.10894         0.55294
C          8.51542         6.21423         1.12961
C          8.55061         7.65351         1.17166
C          9.78313         5.43271         1.29336
C          9.72666         8.33940         0.91984
C          8.56142        10.57436         1.18177
C          8.61228        12.11384         1.38435
C          9.63390         9.80033         0.43738
C          9.81087        12.73988         0.69022
C          8.56578        14.82472         0.12983
C          8.56082        16.14371        -0.48826
C          9.79599        14.08846         0.25184
C          9.77530        16.57357        -1.08629
C          8.50350        19.24693        -0.84234
C          9.78427        18.83365        -1.18604
C         11.11540         1.91259        -1.03714
C         11.08780         3.47334         0.53514
C         12.30421         1.98676        -1.71228
C         12.29123         4.11946         0.56474
C         11.02757         6.23911         1.03260
C         10.99901         7.60881         0.90934
C         12.35367         5.51615         1.13993
C         12.26428         8.34124         0.95014
C         10.96861        10.51970         0.50493
C         11.00902        12.00512         0.56121
C         12.23294         9.79649         0.78384
C         12.24598        12.62767         0.29770
C         11.02195        14.68003        -0.17032
C         11.02150        15.93157        -0.84767
C         12.26648        14.01199        -0.02180
C         12.25014        16.54299        -1.20505
C         11.03154        19.40973        -0.85298
C         12.26838        18.77851        -1.14104
C         13.55720         2.65600        -1.18191
C         13.55683         3.34719         0.22601
C         14.79501         1.78105        -1.24409
C         14.81381         4.22879         0.20485
C         13.47501         6.30063         0.46836
C         13.49961         7.72980         0.92869
C         14.79347         5.59486         0.52037
C         14.74858         8.42159         1.17644
C         13.37157        10.63904         1.31780
C         13.55097        11.84432         0.36598
C         14.68883         9.86446         1.55863
C         14.68929        12.74618         0.79762
C         13.48364        14.71875        -0.27953
C         13.50569        16.05400        -0.75660
C         14.73579        13.98903        -0.03709
C         14.74522        16.85314        -0.86038
C         13.52486        19.08909        -0.63570
C         14.74209        18.32308        -0.83070
C         15.99788         2.27748        -0.79392
C         16.02229         3.62061        -0.20440
C         17.25353         1.61331        -1.01264
C         17.22376         4.35745        -0.18814
C         15.98572         6.35678         0.59093
C         15.96512         7.75116         1.03366
C         17.20035         5.71628         0.22734
C         17.27159         8.38570         1.39315
C         15.97921        10.65969         1.66399
C         15.96662        12.13555         1.30205
C         17.30720         9.93638         1.68918
C         17.24003        12.81948         0.97788
C         16.00222        14.74350        -0.16483
C         15.95394        16.15272        -0.62719
C         17.20117        14.24821         0.58222
C         17.22314        16.67391        -0.96318
C         15.92071        19.11254        -0.67959
C         17.22332        18.73724        -1.08213
C         18.46448         2.29531        -0.91781
C         18.47367         3.72125        -0.58249
C         19.71401         1.64720        -1.14846
C         19.64350         4.44093        -0.64695
C         18.42436         6.46397         0.25150
C         18.49511         7.66649         0.93748
C         19.63317         5.88101        -0.35205
C         19.81069         8.10581         1.31379
C         18.52673        10.78620         1.52436
C         18.47532        12.16869         1.11980
C         19.79013        10.23268         1.74717
C         19.73295        12.87779         0.93969
C         18.48616        14.98512         0.34808
C         18.46686        16.22733        -0.47294
C         19.75834        14.25746         0.50531
C         19.64238        16.97759        -0.66570
C         18.50404        19.22349        -0.76074
C         19.68194        18.40839        -0.87028
C         20.93082         2.34028        -1.16731
C         20.92024         3.85060        -1.20351
C         22.15922         1.66322        -1.23896
C         22.18330         4.48266        -0.63771
C         20.96659         6.60095        -0.18484
C         20.99916         7.74180         0.74152
C         22.19828         5.79582        -0.26800
C         22.28855         8.46063         1.17089
C         20.99867        10.78125         1.27571
C         20.95223        12.15621         0.97980
C         22.20240         9.97208         0.78012
C         22.23619        12.86584         0.95022
C         20.92365        14.90136         0.12350
C         20.91287        16.21634        -0.56625
C         22.20385        14.31349         0.54406
C         22.21931        16.93192        -0.80650
C         20.95317        19.06780        -0.90587
C         22.19794        18.41552        -0.87400
C         23.40869         2.30044        -1.00771
C         23.43166         3.71760        -0.63620
C         24.60252         1.57341        -1.02995
C         24.59298         4.28903        -0.17768
C         23.50625         6.54530        -0.19941
C         23.52340         7.89616         0.48210
C         24.62507         5.69451         0.38024
C         24.70782         8.57472         0.48594
C         23.51693        10.69916         0.99529
C         23.52092        12.11375         0.92662
C         24.76979         9.99407         0.87114
C         24.72375        12.82893         0.93239
C         23.51212        14.89369         0.14605
C         23.52295        16.26697        -0.44891
C         24.71786        14.29868         0.81680
C         24.71611        17.08914        -0.30531
C         23.43298        19.09165        -0.92221
C         24.68346        18.43308        -0.69763
C         25.84209         2.12013        -0.55833
C         25.79892         3.47989         0.03544
C         27.02746         1.43071        -0.59413
C         27.09774         4.19911         0.34753
C         25.95343         6.40124         0.20508
C         25.97889         7.90368        -0.03137
C         27.11637         5.68772         0.30250
C         27.25534         8.53713         0.48075
C         25.97824        10.67789         0.94680
C         25.96995        12.12783         1.42006
C         27.27980        10.05371         0.47969
C         27.27477        12.92145         1.16294
C         26.00952        15.06711         0.68604
C         26.01073        16.54395         0.27832
C         27.26829        14.30260         0.61223
C         27.12910        16.89960        -0.69575
C         25.95317        19.11446        -0.85290
C         27.14845        18.41400        -0.85479
C         28.28615         1.96303         0.05718
C         28.33958         3.47699         0.04421
C         29.51753         1.33644        -0.53587
C         29.51102         4.18302        -0.15580
C         28.40357         6.35834         0.32233
C         28.40698         7.79567         0.56723
C         29.57322         5.62349         0.07700
C         29.71764         8.45286         0.82174
C         28.50001        10.62354         1.25450
C         28.56988        12.15009         1.10678
C         29.76736         9.92997         0.80010
C         29.75559        12.80183         0.49972
C         28.45272        14.91301         0.18083
C         28.45057        16.27058        -0.31167
C         29.71706        14.18597         0.18964
C         29.63386        16.94705        -0.60659
C         28.39638        19.05008        -1.07588
C         29.60415        18.34950        -0.99734
C         30.63080         2.04655        -0.80469
C         30.71179         3.47504        -0.55697
C         31.89875         4.16540        -0.70384
C         30.86159         6.26622         0.00138
C         30.97788         7.68216         0.44113
C         31.97456         5.54864        -0.39961
C         32.12669         8.49181         0.01477
C         30.92684        10.59679         0.47902
C         30.94838        12.06099         0.35145
C         32.10080         9.84333         0.07106
C         32.13101        12.75271         0.01816
C         30.91922        14.85754        -0.17262
C         30.90850        16.27849        -0.49151
C         32.11937        14.11869        -0.21146
C         32.07618        16.99737        -0.73528
C         30.83952        19.02582        -1.23369
C         32.03903        18.36439        -1.09771
O          9.78835        17.63209        -1.96419
O          3.25701         6.34548         2.46781
O         19.86614         8.99699         2.39442
O         17.71670        15.17108         1.60293
O         15.58479        13.81882        -1.23153
O         23.73946        15.03590        -1.27822
O         20.21263         6.73176        -1.44523
O         25.30001        14.95584         1.99657
O         26.29847         3.57844         1.43956
O         11.82725        10.07562        -0.62644
O         30.56765         7.84346         1.84271
O         15.22692        10.27625         2.85335
O          4.67180         9.24464         2.82302
O          3.87994        17.06404         0.78142
O         12.21831        17.66039        -2.01805
O         11.12594         2.08434         0.35861
O          3.81172        13.14857         2.00406
O         28.17070        12.83688         2.33686
O         21.56383        16.23812        -1.90676
O         15.03497        12.90981         2.18522
O         17.25207        17.63625        -1.97428
O         17.34698         8.94318         2.73806
O          5.58275        14.18109        -1.18700
O          6.81063        10.43984         2.74712
O         22.23594        13.94579         1.96176
O          8.82198        12.36436         2.79956
H          8.12235        11.86868         3.28454
O          9.84700         5.08317         2.73823
H          8.95295         4.77378         3.00508
O         28.21830         1.54646         1.46307
H         27.48884         2.07492         1.86865
O         27.44547        10.47225        -0.91139
H         26.91672         9.83777        -1.45881
O         23.80356         6.76626        -1.62362
H         23.03181         7.23301        -2.01156
O         26.05061         8.14172        -1.48544
H         25.26539         7.67308        -1.87657
O          5.95700         5.53721         2.73535
H          5.03452         5.70390         3.05351
O         13.75534         2.31207         1.20724
H         13.64950         2.71258         2.09500
O         22.01232         9.92762        -0.67638
H         22.03642        10.84577        -1.02069
O         24.37636         5.57238         1.80388
H         25.04470         4.93764         2.15736
O         28.31811        10.29054         2.63969
H         27.91961        11.07981         3.08104
O         12.66261         5.37159         2.55317
H         11.81413         5.16375         3.01210
O         13.14185         6.38130        -0.95640
H         13.35658         5.51255        -1.37971
O         26.27786        17.29890         1.48382
H         25.80465        16.84800         2.21985
O         13.77021         3.77944        -2.11016
H         13.96765         3.41459        -2.99856
O          6.31511        16.66460         1.50126
H          5.41465        16.82889         1.87069
O         26.77504        16.32226        -1.98163
H         27.45268        16.59252        -2.63559
O         22.49383         8.33423         2.58141
H         21.65413         8.58300         3.03187
O          6.87536         8.68853        -0.21214
H          7.67729         9.01142        -0.70288
O          9.26976         9.73662        -0.97421
H         10.09585         9.50851        -1.46218
O          1.35322        10.24451         2.53794
H          1.88591        10.02232         3.33064
O         20.92665         4.22214        -2.62430
H         20.73467         5.19035        -2.65402
O         25.81381        12.06958         2.87551
H         25.70061        12.99628         3.18531
O         12.89459        11.14307         2.57497
H         13.69146        11.34506         3.12600
O         13.98640        11.40649        -0.93631
H         13.24116        10.91038        -1.35315
H          0.42774         2.30069        -2.28807
H          0.26561         4.34699        -0.90911
H          2.64599         1.21725        -2.67420
H          0.16869         5.97597         0.18325
H          0.19522         8.24852         0.99018
H          0.62180         9.71299        -0.27524
H          0.70646        11.93048        -1.17368
H          0.30289        14.07928        -1.12998
H          0.37953        16.40818        -1.91267
H          1.60642        18.59793        -2.12467
H          5.05297         1.17545        -2.37263
H          3.70275        19.88485        -1.99101
H          7.42333         1.14030        -2.20231
H          6.10441        20.03836        -1.45610
H          9.62560         1.22100        -2.48104
H          8.33315        20.28478        -0.52072
H         12.27396         1.87812        -2.80941
H         11.03528        20.30514        -0.21640
H         14.74867         0.80059        -1.74164
H         13.63774        20.06388        -0.13630
H         17.24841         0.56515        -1.34816
H         15.78676        20.12481        -0.26702
H         19.72387         0.55082        -1.25280
H         18.62272        20.25465        -0.39517
H         22.15178         0.56909        -1.36744
H         20.95151        20.16717        -0.96245
H         24.58710         0.52337        -1.35873
H         23.43788        20.17728        -1.10233
H         27.04552         0.40831        -1.00247
H         25.95520        20.19610        -1.05701
H         29.49785         0.24954        -0.70620
H         28.41709        20.13259        -1.27501
H         31.52570         1.54595        -1.20522
H         32.80845         3.63293        -1.01589
H         32.95591         6.03786        -0.46281
H         33.00922         7.99221        -0.40905
H         32.98882        10.38898        -0.27266
H         33.09073        12.22533        -0.04467
H         33.06700        14.61490        -0.45787
H         33.05827        16.51433        -0.64849
H         30.81600        20.08696        -1.52006
H         32.98455        18.89514        -1.27613
