         244
 CSIRO Nanostructure Databank - Neutral Graphene Oxide Data Set
C          1.37178         2.05255        -0.70727
C          1.30847         3.40865        -0.33760
C          2.59482         1.42410        -0.77161
C          2.45297         4.11544         0.03830
C          1.30092         6.29076        -0.30032
C          1.31784         7.69587        -0.46373
C          2.38329         5.56746         0.18099
C          2.44431         8.46506        -0.20521
C          1.41112        10.58670        -1.00530
C          1.44849        11.95216        -1.19200
C          2.52613         9.87703        -0.49218
C          2.61749        12.70609        -0.89480
C          1.52211        14.87255        -1.55457
C          1.47848        16.22501        -1.55263
C          2.64661        14.12950        -1.02464
C          2.52118        17.05181        -0.85760
C          2.81160        18.36180        -1.55779
C          3.79094         2.05485        -0.30976
C          3.71330         3.41796         0.20571
C          4.98923         1.33611        -0.56569
C          4.84096         4.15357         0.66290
C          3.51515         6.32471         0.74184
C          3.57170         7.82444         0.49474
C          4.78272         5.58915         1.14035
C          4.88202         8.51164         0.52205
C          3.73031        10.59436        -0.21566
C          3.77527        12.00383        -0.42579
C          4.91089         9.89963         0.23342
C          5.00001        12.72195        -0.21587
C          3.82210        14.84991        -0.66015
C          3.80939        16.28941        -0.62164
C          5.01536        14.15470        -0.33887
C          4.95058        17.00177        -0.30559
C          3.91723        19.04670        -1.24857
C          4.85461        18.51192        -0.17707
C          6.19991         1.60526         0.09335
C          6.07289         3.54925         0.98406
C          7.52325         1.40661        -0.29097
C          7.33096         4.21121         0.97086
C          6.09018         6.35098         0.89812
C          6.07462         7.79654         0.79206
C          7.29402         5.65969         0.98823
C          7.31057         8.52931         0.87657
C          6.13904        10.62670         0.38327
C          6.17367        12.02514         0.13221
C          7.31802         9.93507         0.76611
C          7.51854        12.69978         0.05865
C          6.22768        14.88630        -0.08819
C          6.19690        16.32299        -0.08355
C          7.43974        14.21025         0.15250
C          7.39309        17.05313         0.08071
C          6.18780        19.19244        -0.18521
C          7.37756        18.51009        -0.01005
C          8.61791         2.12981         0.28798
C          8.55534         3.47884         0.83294
C          9.88109         1.52719         0.08382
C          9.81276         4.17921         1.02725
C          8.55406         6.38218         1.39106
C          8.56378         7.84053         1.01944
C          9.83645         5.62779         1.12220
C          9.77000         8.53946         0.88693
C          8.54155        10.65158         1.31336
C          8.50915        12.19764         1.12100
C          9.82659         9.95852         0.89950
C          9.86441        12.82429         0.87120
C          8.63544        14.93560         0.38863
C          8.62528        16.37028         0.28412
C          9.86447        14.25525         0.67153
C          9.84685        17.09459         0.34380
C          8.61190        19.21575         0.09003
C          9.83481        18.54343         0.25699
C         11.08199         2.14299         0.44956
C         11.03598         3.49249         0.93138
C         12.32210         1.46958         0.25233
C         12.29719         4.15861         1.28507
C         11.01644         6.32851         0.98828
C         11.00854         7.76783         0.65926
C         12.31824         5.68450         1.22730
C         12.31471         8.49607         0.54861
C         11.05631        10.65612         0.90215
C         11.04148        12.10524         0.95165
C         12.30746         9.95818         0.77684
C         12.30074        12.86440         1.30259
C         11.08740        14.98426         0.65369
C         11.08099        16.40429         0.45730
C         12.33099        14.29484         0.77593
C         12.31808        17.12449         0.44141
C         11.04935        19.25489         0.31902
C         12.30592        18.58831         0.35632
C         13.55658         2.06604         0.51201
C         13.59803         3.41659         1.13594
C         14.75701         1.41967         0.17273
C         14.89638         4.17219         1.18068
C         13.60043         6.40076         0.99207
C         13.58909         7.74828         0.74380
C         14.93301         5.71290         1.33753
C         14.82646         8.50006         0.55783
C         13.54728        10.62143         0.76667
C         13.59319        12.07720         1.07229
C         14.75135         9.92225         0.46152
C         14.84642        12.83036         0.79454
C         13.52219        15.01076         0.65037
C         13.52603        16.42670         0.50241
C         14.81088        14.27868         0.37236
C         14.80702        17.22015         0.73189
C         13.48560        19.30596         0.25469
C         14.79305        18.60865        -0.01284
C         16.01636         2.05865         0.22588
C         16.13962         3.43907         0.74434
C         17.15200         1.41753        -0.27834
C         17.38961         4.22708         0.36863
C         16.11707         6.38787         0.63840
C         16.05190         7.80869         0.46315
C         17.30209         5.71207         0.33357
C         17.33867         8.59391         0.32529
C         15.93988        10.67175        -0.01962
C         16.02588        12.13914         0.18348
C         17.16944         9.89957        -0.46226
C         17.32601        12.86603         0.22588
C         16.06418        14.97017         0.92731
C         16.11701        16.44527         0.41249
C         17.33973        14.21201         0.53517
C         17.37078        16.99991         1.07277
C         16.00353        19.38017         0.50044
C         17.23999        19.15272         0.06040
C         18.32485         2.14404        -0.63108
C         18.38474         3.52599        -0.45193
C         19.42876         1.45640        -1.28228
C         19.42408         4.33076        -1.18573
C         18.46549         6.42622        -0.17231
C         18.47980         7.78907        -0.25672
C         19.72227         5.61063        -0.41255
C         19.58893         8.51870        -0.99887
C         18.47125        10.69977        -0.41839
C         18.52540        12.11403        -0.11296
C         19.64508        10.00120        -0.67174
C         19.75595        12.78708        -0.20225
C         18.62373        14.94516         0.62071
C         18.61814        16.43559         0.46236
C         19.87620        14.20224         0.18618
C         19.69227        17.11539        -0.01967
C         18.40847        19.36256        -0.51576
C         19.67133        18.53148        -0.58109
C         20.56713         2.11713        -1.64324
C         20.68162         3.54111        -1.48155
C         21.85948         4.22237        -1.69349
C         20.89258         6.37278        -1.00527
C         20.92028         7.80403        -0.90395
C         21.94004         5.63859        -1.52979
C         22.09753         8.53369        -0.93905
C         20.91222        10.67950        -0.76435
C         20.94296        12.12217        -0.64336
C         22.09376         9.94060        -0.90615
C         22.08693        12.88473        -0.94104
C         21.02636        14.98567        -0.29434
C         20.98388        16.43256        -0.21080
C         22.09946        14.28755        -0.83780
C         22.13246        17.20614        -0.20926
C         20.89012        19.29605        -0.11132
C         22.06936        18.63283        -0.01851
O         14.38131         3.49088         2.37495
O         17.40384        17.40878         2.24071
O         15.61614        11.62802        -1.15199
O         17.22166         3.62035         1.70087
O         11.59644         8.06046        -0.67431
O          6.05570         2.21050         1.35951
O         14.56680        12.43612         2.15177
O         19.55363        14.43981         1.62118
O          3.13506         7.27223         1.80108
O         12.27925         4.94469         2.50523
O         18.84425         4.71783        -2.46717
H         18.78661         3.91491        -3.02598
O         19.26574         8.41284        -2.42320
H         18.34123         8.75642        -2.52900
O          8.47861        10.38911         2.74961
H          7.87803        11.07439         3.12769
O         14.75841        17.50019         2.14462
H         15.67704        17.67497         2.47411
O          8.48051         6.38611         2.86920
H          7.62153         6.78698         3.12346
O         17.72986         8.99752         1.67452
H         17.61167         8.22510         2.26792
O         16.90114         9.50965        -1.83676
H         16.48462        10.28895        -2.27261
O         16.40747        16.40263        -0.99722
H         15.81582        15.71957        -1.40860
O         14.85546        18.45028        -1.43622
H         15.68312        17.95094        -1.64206
O         15.94880        14.95050         2.34933
H         16.65012        15.51513         2.74471
O         20.16520         5.17765         0.90432
H         20.31562         5.97160         1.45804
O          1.95967        17.40326         0.46248
H          1.78052        16.56196         0.93417
O         12.16533        13.04200         2.75013
H         13.08053        13.15648         3.10290
O          4.24535        18.82176         1.11414
H          3.33053        18.43861         1.09459
O         19.86090        18.33608        -2.02554
H         20.73266        17.90351        -2.15189
O          4.74614         5.46533         2.59965
H          4.22024         6.23428         2.92685
O          8.04225        12.79302         2.36615
H          8.82586        12.99668         2.92043
O         15.14459         5.97306         2.74742
H         14.63279         5.28250         3.23311
O         14.88936        14.27424        -1.09078
H         14.95852        13.34958        -1.42680
O          8.09580        12.35193        -1.23516
H          7.49151        12.67760        -1.93455
H          0.45520         1.52425        -1.00275
H          0.33340         3.91085        -0.37562
H          2.66312         0.39074        -1.14080
H          0.41103         5.76581        -0.67211
H          0.42706         8.15723        -0.91090
H          0.48128        10.05056        -1.23656
H          0.54730        12.45650        -1.56414
H          0.68862        14.31886        -2.00967
H          0.60856        16.74840        -1.97683
H          2.08783        18.74045        -2.29565
H          4.95904         0.54711        -1.33265
H          4.13515        20.01873        -1.71686
H          7.75561         0.68377        -1.08754
H          6.19904        20.29270        -0.22192
H          9.91544         0.51635        -0.34833
H          8.60379        20.31422         0.02749
H         12.30214         0.45669        -0.17665
H         11.03068        20.35333         0.25392
H         14.70512         0.40262        -0.24438
H         13.44186        20.40241         0.16259
H         17.08081         0.35927        -0.57096
H         15.87568        19.93245         1.45012
H         19.35639         0.36642        -1.40794
H         18.46207        20.23855        -1.19343
H         21.43221         1.55952        -2.03310
H         22.75461         3.67521        -2.02606
H         22.84843         6.14995        -1.88094
H         23.06594         8.01256        -0.94946
H         23.06123        10.45988        -0.93356
H         22.98489        12.38948        -1.33373
H         22.98407        14.83392        -1.19525
H         23.11967        16.72421        -0.23578
H         20.83742        20.38578         0.02297
H         22.99906        19.17044         0.21779
