         344
 CSIRO Nanostructure Databank - Neutral Graphene Oxide Data Set
C          1.34852         1.93761         0.73853
C          1.30893         3.37315         0.72345
C          2.51283         1.25875         0.50657
C          2.41162         4.11965         0.39281
C          1.18268         6.31122         0.40862
C          1.13844         7.67468         0.29016
C          2.42274         5.57633         0.41865
C          2.33492         8.46610         0.25872
C          1.13556        10.63066         0.13207
C          1.14921        11.99649         0.12614
C          2.34102         9.85144         0.14513
C          2.37971        12.75820         0.16244
C          1.15967        14.96362         0.37156
C          1.13511        16.32560         0.32652
C          2.37017        14.18979         0.19060
C          2.30682        17.08394        -0.13154
C          2.39679        18.55951        -0.04011
C          3.73085         1.96451         0.20316
C          3.64372         3.43449        -0.14722
C          4.93391         1.31300         0.11147
C          4.92800         4.18327         0.11875
C          3.63529         6.26701         0.43643
C          3.59426         7.73905         0.58251
C          4.91339         5.58278         0.34137
C          4.88107         8.49977         0.72212
C          3.62960        10.58422        -0.15514
C          3.60583        12.06708         0.12769
C          4.89106         9.91938         0.33116
C          4.84772        12.76731         0.22089
C          3.61353        14.87647         0.14383
C          3.61195        16.31748        -0.17135
C          4.83140        14.19198         0.26057
C          4.88737        17.06451        -0.14622
C          3.57262        19.20707        -0.21017
C          4.86388        18.52527        -0.28625
C          6.17059         2.03246        -0.08105
C          6.14329         3.48126        -0.00753
C          7.37966         1.36617        -0.19840
C          7.37003         4.19964        -0.02993
C          6.15169         6.29442         0.42513
C          6.21274         7.75430         0.88421
C          7.35340         5.60269         0.21522
C          7.37525         8.53013         0.29176
C          6.09654        10.62756         0.23566
C          6.08782        12.04537         0.19378
C          7.36358         9.89374         0.15761
C          7.38081        12.78580         0.42950
C          6.11556        14.97311         0.46746
C          6.05937        16.38487        -0.04937
C          7.31632        14.20958        -0.13859
C          7.34935        17.05159        -0.47703
C          6.03814        19.22046        -0.25313
C          7.35723        18.52867         0.01474
C          8.61565         2.07195        -0.34066
C          8.59792         3.50832        -0.30298
C          9.84640         1.38802        -0.39452
C          9.80458         4.23353        -0.51492
C          8.65038         6.31072         0.19454
C          8.65797         7.80938         0.17615
C          9.83910         5.61365        -0.33907
C          9.75380         8.47691        -0.62646
C          8.61074        10.63724        -0.09274
C          8.63135        12.04973         0.01147
C          9.81375         9.95322        -0.34977
C          9.84413        12.76120        -0.04613
C          8.62472        14.94818         0.02788
C          8.61898        16.33457        -0.06634
C          9.85483        14.22417         0.05417
C          9.84528        17.06269        -0.06147
C          8.58334        19.23108        -0.57545
C          9.85669        18.48324        -0.21683
C         11.07803         2.06014        -0.59114
C         11.02617         3.50968        -1.02772
C         12.29732         1.40428        -0.47901
C         12.29988         4.25408        -0.73394
C         11.06212         6.35957        -0.47074
C         11.06953         7.75616        -0.49324
C         12.30869         5.61723        -0.56405
C         12.29287         8.49611        -0.55529
C         11.04583        10.64598        -0.43319
C         11.07000        12.05843        -0.25477
C         12.28651         9.92313        -0.57943
C         12.32177        12.76276        -0.33283
C         11.06668        14.92737         0.07850
C         11.07607        16.35111         0.06647
C         12.36655        14.17298         0.22617
C         12.31086        17.07991         0.10101
C         11.06148        19.16292        -0.12270
C         12.28742        18.47727         0.05107
C         13.56477         2.05182        -0.67631
C         13.58903         3.52864        -1.02881
C         14.76190         1.39159        -0.58641
C         14.74538         4.19386        -0.28690
C         13.55867         6.36797        -0.51110
C         13.53375         7.79866        -0.52644
C         14.77422         5.68844        -0.46106
C         14.75810         8.52731        -0.53098
C         13.51371        10.63873        -0.70673
C         13.48538        12.08551        -0.67267
C         14.74316         9.92491        -0.69885
C         14.73552        12.83015        -0.97352
C         13.56186        14.98116        -0.19248
C         13.56500        16.35164        -0.06691
C         14.72349        14.35759        -0.91417
C         14.80844        17.09840        -0.20444
C         13.54884        19.29084         0.17583
C         14.82301        18.50234        -0.03571
C         16.05426         2.08162        -0.97259
C         16.06385         3.52873        -0.54608
C         17.31612         1.37000        -0.57782
C         17.23005         4.21928        -0.30985
C         16.00871         6.38876        -0.35607
C         16.01746         7.81782        -0.37525
C         17.22702         5.67082        -0.19103
C         17.22664         8.50938        -0.18883
C         16.09130        10.56709        -0.97386
C         16.04625        12.08675        -0.99794
C         17.17510        10.01439        -0.04704
C         17.29958        12.82234        -0.72283
C         16.05149        14.96773        -0.52941
C         16.05243        16.39536        -0.33449
C         17.24868        14.22927        -0.60526
C         17.26339        17.11492        -0.22644
C         16.03247        19.19971         0.00289
C         17.27325        18.51922        -0.06300
C         18.47200         2.04514        -0.27416
C         18.48232         3.50609        -0.14393
C         19.72974         1.34615        -0.16127
C         19.62061         4.19270         0.23448
C         18.44018         6.37113        -0.01987
C         18.45096         7.80770        -0.03328
C         19.65702         5.64561         0.24015
C         19.69337         8.51142         0.06118
C         18.51074        10.68763        -0.27601
C         18.53122        12.09016        -0.51265
C         19.71249         9.96457        -0.09729
C         19.78596        12.77013        -0.47947
C         18.52580        14.97676        -0.64313
C         18.56387        16.37542        -0.07359
C         19.82427        14.23548        -0.66313
C         19.77718        17.17039        -0.59257
C         18.52369        19.21793         0.09751
C         19.75206        18.58507        -0.04671
C         20.90197         2.00445         0.15318
C         20.83949         3.42479         0.57677
C         22.17155         1.36110         0.12218
C         22.10728         4.15018         0.91287
C         20.84548         6.35176         0.44695
C         20.89335         7.78106         0.28812
C         22.07627         5.67806         1.03355
C         22.15495         8.46556         0.36649
C         20.94959        10.66211        -0.10194
C         20.97832        12.06385        -0.24492
C         22.25522         9.90849        -0.05953
C         22.31314        12.78955        -0.31070
C         21.05795        14.99149        -0.31098
C         21.04201        16.40362        -0.24605
C         22.24269        14.28274        -0.06481
C         22.22250        17.10291         0.07190
C         20.98237        19.25665         0.13477
C         22.21079        18.57036         0.13286
C         23.37220         2.05315         0.29275
C         23.40020         3.46205         0.63334
C         24.61789         1.38537         0.06174
C         24.59843         4.15211         0.64320
C         23.36538         6.28519         0.45785
C         23.36638         7.78847         0.58940
C         24.61317         5.60982         1.05242
C         24.59508         8.46052         0.79572
C         23.30902        10.66067         0.75048
C         23.36453        12.14244         0.58030
C         24.57053         9.90795         1.06001
C         24.66544        12.85994         0.68517
C         23.42517        14.98370         0.27593
C         23.41464        16.39416         0.32915
C         24.66563        14.25684         0.53552
C         24.64562        17.15393         0.77862
C         23.43823        19.25852         0.16124
C         24.67055        18.57554         0.26800
C         25.81079         2.08058         0.00333
C         25.82726         3.50931         0.25519
C         27.06039         1.40726        -0.26727
C         27.00651         4.23980         0.10926
C         25.87099         6.35383         0.67007
C         25.85497         7.76984         0.78401
C         27.05429         5.65456         0.38072
C         27.10363         8.48466         0.75373
C         25.88755        10.66885         1.03221
C         25.88655        12.12753         0.79824
C         27.14146         9.92476         0.81126
C         27.12534        12.78382         0.73098
C         25.88811        14.99344         0.62987
C         25.92624        16.39063         0.54204
C         27.13474        14.24631         0.82574
C         27.15149        17.08380         0.30043
C         25.88081        19.20525         0.01139
C         27.12562        18.49968         0.00331
C         28.22055         2.10446        -0.46582
C         28.18365         3.61085        -0.58840
C         29.47591         1.43610        -0.72003
C         29.50309         4.27710        -0.28117
C         28.29639         6.36958         0.32066
C         28.30642         7.74963         0.56051
C         29.54744         5.64156         0.07548
C         29.61192         8.48331         0.36179
C         28.33795        10.64268         0.70634
C         28.36684        12.07295         0.67802
C         29.62982         9.90296         0.93661
C         29.60739        12.76304         0.42961
C         28.45816        14.98043         0.60185
C         28.37883        16.38461         0.18762
C         29.64418        14.17775         0.25906
C         29.55833        17.02526        -0.26586
C         28.30672        19.14418        -0.37652
C         29.52568        18.43538        -0.52856
C         30.64671         2.12756        -0.77199
C         30.69871         3.55168        -0.48868
C         31.93572         4.20737        -0.35259
C         30.80603         6.27720         0.24020
C         30.83629         7.67162         0.84932
C         31.98169         5.55003         0.01729
C         32.08010         8.47713         0.54843
C         30.86464        10.62122         0.45259
C         30.82805        12.00859         0.22577
C         32.05992         9.82812         0.36898
C         31.98808        12.71945        -0.22821
C         30.79573        14.84758        -0.21031
C         30.77984        16.28765        -0.42956
C         31.96795        14.06982        -0.45981
C         31.92814        16.99058        -0.83233
C         30.71493        19.09125        -0.93304
C         31.89258        18.37171        -1.07530
O          9.02677         7.10933         1.39160
O          4.04697         8.23339         1.93014
O         25.21722        10.29452         2.30156
O         15.36019        12.45327        -2.26497
O         21.29839         3.56289         1.99290
O         22.82361        11.53992         1.80136
O          2.84901        16.57598        -1.40401
O         19.21479        14.73623        -1.92356
O         27.94463        14.73625         1.95330
O          7.32314        16.96545        -1.89292
O         19.70619        17.33094        -2.02666
H         19.62561        16.42654        -2.41852
O          3.48425         3.47398        -1.61682
H          2.66791         2.97367        -1.83029
O         27.95435         3.87394        -2.02905
H         28.65709         3.39646        -2.51990
O         12.54469        13.95207         1.68046
H         11.69238        13.61580         2.03178
O         14.46181         3.95720         1.13568
H         15.16726         4.39366         1.65841
O          6.27351        15.17264         1.90321
H          6.63680        14.33662         2.28720
O         16.06453         2.09373        -2.44879
H         15.29120         2.64966        -2.72946
O         23.38808         5.98873        -0.96237
H         22.89718         6.69258        -1.43732
O         13.51714        20.42482        -0.70336
H         13.39209        20.09807        -1.61797
O         16.48264        10.14164        -2.30325
H         15.98108        10.70299        -2.93747
O         22.77480         9.85204        -1.43078
H         22.81022        10.78292        -1.77377
O         24.53075        17.28356         2.24025
H         24.66095        16.39170         2.62789
O          9.32682         8.32482        -2.02627
H          9.90755         8.88926        -2.57943
O         29.75427         8.65294        -1.07529
H         29.68683         7.76773        -1.49232
O          8.46054        19.29933        -1.99349
H          8.07936        18.41814        -2.28973
O         18.75919        16.17754         1.36066
H         18.68029        17.05181         1.79844
O          7.07077        14.11833        -1.55956
H          7.12883        15.04714        -1.92003
O          6.50132         7.70488         2.30756
H          5.62792         7.65110         2.76383
O         14.53340        14.82466        -2.29936
H         15.06319        14.21562        -2.86715
O         21.99808         5.99439         2.45348
H         21.45803         5.27005         2.85492
O         29.73179         9.82863         2.39935
H         29.64174        10.73887         2.75383
O         22.81078        12.61962        -1.68557
H         22.19406        13.08951        -2.28763
O         13.79523         3.65293        -2.46834
H         12.93437         3.41077        -2.88940
O         30.78832         7.42620         2.27398
H         30.55943         8.27705         2.71895
O         16.76697        10.33006         1.31509
H         17.45091         9.98693         1.92763
O          7.51559        12.87601         1.89659
H          7.49251        11.96121         2.25129
O          3.74258        10.47759        -1.64068
H          4.38797        11.15656        -1.93646
O         24.61273         5.66906         2.50078
H         23.67961         5.78112         2.81481
O          7.53429        18.51718         1.44771
H          6.79244        18.01029         1.84251
O         10.93064         3.47033        -2.50872
H         10.62525         4.35520        -2.80412
H          0.43256         1.39001         1.00005
H          0.37730         3.86187         1.04214
H          2.54991         0.16390         0.60727
H          0.23793         5.75072         0.40204
H          0.16095         8.16459         0.18418
H          0.16525        10.11629         0.17345
H          0.19141        12.53371         0.12206
H          0.23759        14.43280         0.64876
H          0.22039        16.87131         0.60309
H          1.46655        19.12903         0.10800
H          4.97835         0.22042         0.24243
H          3.58992        20.30782        -0.19459
H          7.39562         0.26591        -0.19948
H          6.02208        20.32202        -0.23568
H          9.85607         0.29943        -0.22912
H          8.64399        20.28148        -0.18213
H         12.30055         0.33156        -0.22595
H         11.08427        20.25826        -0.22243
H         14.77845         0.31247        -0.36379
H         13.58285        19.71425         1.22058
H         17.34910         0.27650        -0.70253
H         16.01778        20.29273         0.12342
H         19.75689         0.27402        -0.40772
H         18.49342        20.28498         0.36757
H         22.20854         0.29514        -0.14958
H         20.97861        20.34195         0.32115
H         24.60651         0.30314        -0.13760
H         23.44083        20.35122         0.02547
H         27.06801         0.30627        -0.29247
H         25.88059        20.26353        -0.29323
H         29.47015         0.34240        -0.84195
H         28.28705        20.22280        -0.59305
H         31.59527         1.60107        -0.95244
H         32.86804         3.64608        -0.50874
H         32.96111         6.02700         0.15681
H         33.05329         7.96436         0.53064
H         33.01590        10.33407         0.16620
H         32.91760        12.16679        -0.41761
H         32.88083        14.55536        -0.82868
H         32.88405        16.46592        -0.96062
H         30.69509        20.17250        -1.13011
H         32.81329        18.88502        -1.38592
