         477
 CSIRO Nanostructure Databank - Neutral Graphene Oxide Data Set
C         28.04321        27.53746        -0.46950
C         27.95613        28.99217        -0.52166
C         26.95656        29.73387         0.13282
C         28.19275        31.79917        -0.24842
C         27.01408        31.13074         0.14423
C         28.28627        33.26583        -0.34873
C         27.19990        34.12508        -0.07308
C         28.26204        36.00500        -1.21006
C         27.21859        35.47791        -0.42229
C         28.36777        37.44319        -1.57633
C         27.13221        38.24391        -1.52828
C         28.36828        40.35532        -1.23227
C         27.16393        39.59356        -1.52083
C         28.24028        41.70903        -0.91163
C         27.03608        42.46932        -1.14449
C         27.89713        44.56760         0.00198
C         26.88613        43.76469        -0.77986
C         28.18947        45.86085        -0.71697
C         30.54843        27.29317        -0.31985
C         29.19692        26.79041        -0.42635
C         30.78698        28.71554         0.07249
C         28.99938        29.71486        -1.17658
C         30.64342        31.71561        -0.49665
C         29.28015        31.06194        -0.80394
C         30.72608        33.12817        -1.06165
C         29.41870        33.83499        -0.99317
C         31.19918        36.18656        -1.40636
C         29.30227        35.11846        -1.52855
C         30.95560        37.48320        -1.04385
C         29.71424        38.21400        -1.41362
C         30.72736        40.29840        -0.45884
C         29.62754        39.65184        -1.03704
C         30.72836        41.81251        -0.37015
C         29.34184        42.38250        -0.17964
C         30.39122        44.60686         0.72514
C         29.18224        43.79080         0.28245
C         30.53287        45.93835         0.02588
C         29.39741        46.47595        -0.67359
C         32.90854        24.38911        -0.22717
C         31.78898        25.09441        -0.50545
C         33.00839        27.20576        -0.12295
C         31.72600        26.54028        -0.31902
C         33.20626        28.65193        -0.55258
C         31.90896        29.44574        -0.66301
C         33.18399        31.65418        -0.48266
C         31.92025        30.93302        -0.78981
C         33.20217        33.03837        -0.33392
C         32.08171        33.84674        -0.90391
C         33.06836        35.90209         0.13923
C         32.19654        35.33496        -0.75171
C         32.84610        37.34403         0.60861
C         32.15647        38.18357        -0.46930
C         32.97626        40.25843         0.58238
C         31.91991        39.61680        -0.06973
C         32.88966        41.66689         0.92196
C         31.75923        42.41013         0.57096
C         32.83692        44.57693         1.05340
C         31.69714        43.83350         0.75462
C         32.86880        46.01179         0.83820
C         31.71368        46.65723         0.23540
C         32.90797        48.79241         0.31108
C         31.81277        48.06267        -0.05208
C         35.45826        22.92190         0.44362
C         35.42043        24.31848         0.33902
C         34.08107        25.02311         0.49346
C         35.43205        27.16314         0.23673
C         34.15094        26.49396         0.17667
C         35.41730        28.59630         0.62699
C         34.18685        29.39511         0.33701
C         35.60593        31.55932         0.24382
C         34.25079        30.88258         0.20835
C         35.48771        33.02482         0.64887
C         34.27729        33.69719         0.36185
C         35.31245        35.79450         1.31496
C         34.02559        35.06267         0.96201
C         35.22124        37.25430         1.73434
C         34.10415        38.06787         1.04749
C         35.26233        40.16077         1.61496
C         34.12234        39.45267         1.02234
C         35.27234        41.61684         1.90499
C         33.97094        42.34126         1.67895
C         35.26710        44.59007         1.67241
C         34.00751        43.87735         1.60399
C         35.18879        46.08829         1.81517
C         34.02422        46.75149         1.10422
C         35.23754        48.94574         1.14970
C         34.06967        48.17581         0.89575
C         35.30121        50.36300         1.00842
C         37.90099        22.92721         0.36335
C         36.66915        22.24106         0.42325
C         37.89763        24.35562         0.32636
C         36.64150        25.03471         0.26110
C         37.90603        27.25146        -0.02654
C         36.62820        26.48136         0.22980
C         37.94187        28.65175         0.54901
C         36.68026        29.31157         0.95265
C         37.92855        31.49302         0.93184
C         36.61227        30.82537         1.17091
C         37.92955        32.93984         1.36029
C         36.59560        33.67855         1.22212
C         37.65527        35.83940         2.17688
C         36.48845        35.09593         1.54567
C         37.85067        37.40070         2.00694
C         36.53452        38.00411         1.45972
C         38.12624        40.39225         1.87103
C         36.30831        39.38694         2.01690
C         37.87026        41.70793         1.47149
C         36.60996        42.40441         1.87423
C         37.45736        44.48495         0.61999
C         36.62906        43.94153         1.80589
C         37.57725        46.01589         0.70687
C         36.52161        46.77368         1.46417
C         37.78080        48.96421         0.89764
C         36.53585        48.26017         1.31305
C         37.77554        50.41331         0.84525
C         36.49039        51.05691         0.91675
C         40.41078        20.09900        -0.01745
C         39.18254        20.81436         0.03191
C         40.41439        22.88074         0.53533
C         39.14022        22.16966         0.30213
C         40.40636        24.38941         0.57628
C         39.13643        25.11563         0.37648
C         40.42232        27.25628         0.23591
C         39.18480        26.50198         0.26809
C         40.34254        28.67237         0.04997
C         39.10270        29.36948         0.40803
C         40.31164        31.57951         0.41615
C         39.08577        30.82750         0.61973
C         40.30946        33.00259         0.53855
C         39.06925        33.71170         0.71431
C         40.21060        35.91695         0.64578
C         39.01784        35.08527         0.44141
C         40.15744        37.41099         0.59762
C         39.03941        38.09983         1.20656
C         40.08356        40.24485         0.43590
C         39.07007        39.51216         1.21832
C         40.11563        41.72021         0.52003
C         38.90588        42.38179         0.74536
C         40.10659        44.52568         0.12426
C         38.79784        43.79234         0.38076
C         40.13004        45.99528         0.38511
C         38.84301        46.76891         0.39837
C         40.23483        48.89589         0.72153
C         38.92561        48.22594         0.69687
C         40.26299        50.41291         0.74362
C         38.97440        51.12201         0.61885
C         40.12878        53.16824        -0.15971
C         38.99224        52.49043         0.15716
C         42.88840        20.03509        -0.03791
C         41.62992        20.75043         0.01214
C         42.82943        22.89574        -0.06938
C         41.67243        22.19731         0.15170
C         42.98618        24.36961         0.26247
C         41.66561        25.12349         0.35326
C         43.05727        27.12254         0.53688
C         41.67874        26.49707         0.33213
C         42.56421        28.96807        -1.06686
C         41.44986        29.49775        -0.35775
C         42.64112        31.66069        -0.35473
C         41.45854        30.91330        -0.07593
C         42.64550        33.06948        -0.22841
C         41.46676        33.72738         0.15693
C         42.54054        35.93763        -0.41099
C         41.50049        35.18040         0.36970
C         42.60433        37.39006        -0.01428
C         41.34303        38.07659         0.23389
C         42.61536        40.31294        -0.33085
C         41.31547        39.51767        -0.06276
C         42.60291        41.58639         0.56107
C         41.35600        42.42020         0.38209
C         42.64872        44.52055         0.02734
C         41.39437        43.80344         0.26206
C         42.66390        45.96321        -0.11097
C         41.44117        46.70515         0.27692
C         42.64642        48.90820        -0.25590
C         41.39667        48.18695         0.09539
C         42.84630        50.35136         0.18138
C         41.54797        51.14124         0.42297
C         42.65850        53.21382        -0.60751
C         41.47291        52.58108         0.02540
C         44.05127        20.69651        -0.23918
C         45.23627        22.88863        -1.00010
C         44.01431        22.14233        -0.55262
C         45.19813        24.39156        -1.05809
C         43.87334        25.10909        -0.77727
C         45.10227        27.36636        -1.08831
C         44.11697        26.52390        -0.29686
C         45.08710        28.84766        -0.77813
C         43.86537        29.59075        -0.91739
C         45.10261        31.67379        -0.49357
C         43.86760        30.96959        -0.60105
C         45.12961        33.09978        -0.49112
C         43.87342        33.82395        -0.43324
C         45.05952        35.96311        -0.74608
C         43.85124        35.20349        -0.43377
C         45.04321        37.44605        -0.52140
C         43.78379        38.08407        -0.04469
C         45.11941        40.22632         0.25845
C         43.77482        39.54155         0.33131
C         45.14449        41.66038         0.26397
C         43.90412        42.44771         0.61230
C         45.04659        44.41721        -0.59900
C         43.82285        43.78406        -0.09007
C         45.07021        45.93735        -0.66955
C         43.84036        46.67243        -0.33347
C         45.07413        48.76960        -0.73425
C         43.89654        48.11354        -0.41533
C         45.04187        50.20394        -1.13613
C         43.80756        51.03531        -0.80266
C         43.77225        52.51860        -0.89725
C         47.71053        22.98198        -0.84532
C         46.57937        22.26609        -0.96350
C         47.75405        24.46482        -0.82610
C         46.46011        25.20199        -1.02258
C         47.46840        27.28642        -0.05532
C         46.36363        26.64093        -0.68254
C         47.39772        28.76906         0.26795
C         46.24379        29.50191        -0.36770
C         47.53881        31.63688        -0.20865
C         46.30198        30.93712        -0.34777
C         47.58577        33.04581        -0.35299
C         46.36423        33.77135        -0.50223
C         47.62497        35.97967        -0.48604
C         46.38297        35.22817        -0.73985
C         47.63582        37.35247        -0.25428
C         46.35961        38.13048        -0.27693
C         47.56536        40.22865         0.47260
C         46.30398        39.51930         0.22130
C         47.59027        41.67022         0.21870
C         46.34025        42.33327         0.05099
C         47.59902        44.50438        -0.22454
C         46.38413        43.68021        -0.61472
C         47.57310        45.93268        -0.38367
C         46.36798        46.64088        -0.57525
C         47.53732        48.79761        -0.83066
C         46.34775        48.07134        -0.71778
C         47.50112        50.19530        -1.14560
C         46.33260        50.85917        -1.38038
C         49.95955        24.48802         0.56889
C         48.86653        25.19945        -0.12875
C         49.83721        27.37809         0.81086
C         48.65641        26.61778         0.23075
C         49.97912        28.68186         0.01012
C         48.71413        29.49611         0.06552
C         50.03179        31.58025        -0.07931
C         48.76228        30.86944        -0.07175
C         50.03588        33.00939        -0.25677
C         48.85694        33.73675        -0.37710
C         50.10781        35.96613        -0.31228
C         48.89094        35.21547        -0.76495
C         50.11603        37.35208        -0.16655
C         48.87159        38.05574        -0.08207
C         50.10076        40.27820         0.17768
C         48.89017        39.46759         0.33644
C         50.04993        41.65570         0.26795
C         48.80237        42.37676         0.19604
C         50.05798        44.54118        -0.01521
C         48.79700        43.82447         0.02393
C         50.02242        45.96754        -0.23316
C         48.82517        46.64975        -0.34114
C         50.00344        48.53114        -1.40215
C         48.86184        48.16750        -0.46704
C         51.05560        25.17545         0.98618
C         52.36665        27.28530         0.77712
C         51.14514        26.60136         0.81531
C         52.41488        28.72795         0.59146
C         51.22876        29.45895         0.34580
C         52.53981        31.53301        -0.01309
C         51.22410        30.86327         0.15712
C         52.61173        32.97825        -0.37596
C         51.33713        33.73369        -0.14322
C         52.62984        35.97047        -0.34566
C         51.35792        35.22007        -0.13149
C         52.59175        37.42133        -0.03896
C         51.38176        38.07456        -0.00425
C         52.56488        40.21240         0.67532
C         51.41078        39.58775        -0.12206
C         52.59759        41.70327         0.38184
C         51.29842        42.44769         0.59845
C         52.53089        44.53239        -0.16799
C         51.27909        43.86401         0.08403
C         52.55586        45.91906        -0.47113
C         51.31413        46.76252        -0.28613
C         51.16429        47.87495        -1.30400
C         54.81693        27.25275         0.96836
C         53.62235        26.58977         0.92284
C         54.87334        28.68259         0.86155
C         53.68448        29.39100         0.66972
C         55.05753        31.58015         0.67031
C         53.72993        30.86339         0.58746
C         55.17145        33.00716         0.18146
C         53.93896        33.71622        -0.30483
C         55.14201        35.97085         0.08413
C         53.92937        35.22638        -0.33549
C         55.11797        37.36687         0.12001
C         53.86566        38.12879         0.09186
C         55.11420        40.21033         0.63298
C         53.86202        39.47871         0.38719
C         55.07617        41.73072         0.48472
C         53.76638        42.38918         0.21430
C         54.98013        44.47116        -0.38769
C         53.75888        43.80952        -0.11278
C         54.97385        45.83798        -0.71726
C         53.77695        46.55305        -0.73311
C         56.14691        29.37070         0.84205
C         56.25404        30.71816         0.70422
C         56.27849        33.85357         0.68567
C         56.27305        35.20713         0.56558
C         56.34840        38.11697         0.28859
C         56.36762        39.45415         0.49102
C         56.30174        42.47378         0.14028
C         56.23933        43.75150        -0.29299
O         35.98084        41.98955         3.11743
O         44.30952        22.36348        -2.02181
O         45.70242        38.14304        -1.62110
O         43.34423        39.65649         1.75867
O         35.91328        28.63759         2.01993
O         41.76278        52.18819         1.43259
O         29.18308        37.83818        -2.72128
O         53.33445        35.71036        -1.60109
O         45.69914        35.58453        -2.01493
O         41.62922        48.65121        -1.27934
O         40.91084        46.29617         1.58769
O         48.86468        25.00218        -1.60691
O         39.27762        44.07973        -0.98456
O         44.86431        45.11378        -1.88377
O         30.35379        35.56896        -2.33619
O         40.46074        49.61715         1.96681
O         55.08144        41.09529         1.82214
O         31.82771        30.08254        -1.99454
O         38.25983        35.36893         3.13981
O         40.46839        23.58290         1.83268
O         52.62689        31.97759        -1.42648
O         51.40908        34.45126         1.15444
O         33.71863        30.22103         1.42976
O         54.18493        31.48551         1.84893
O         28.96104        42.67779         1.21816
O         31.59946        33.32539        -2.19039
O         43.21533        28.05838         1.31849
O         43.95072        50.44197        -2.11927
O         30.37647        29.17485         1.13379
O         37.28047        39.90808         2.87081
O         36.93553        47.57696         2.60676
O         48.26205        39.72145         1.65983
O         45.80183        24.84762        -2.31082
O         54.91623        33.17336        -1.24998
O         40.23457        39.82916        -0.99178
O         41.13034        35.52400         1.73310
O         33.58773        43.10496         2.83979
O         37.84873        46.51953        -0.64983
O         42.50433        40.89943         1.86919
O         51.21510        42.59041         2.06771
H         51.31072        41.67695         2.43634
O         31.13043        42.27429        -1.70814
H         31.98712        41.85080        -1.92775
O         33.33585        34.84036         2.25121
H         33.91628        34.27537         2.80624
O         30.63865        31.90979         0.94124
H         30.51354        31.02175         1.36299
O         37.99653        35.60485        -0.31093
H         38.04049        36.58709        -0.38614
O         50.14568        28.26067        -1.38302
H         50.29346        29.06246        -1.92812
O         34.98045        37.29904         3.16630
H         35.83994        37.41650         3.63048
O         52.31009        40.04683         2.09897
H         53.13527        40.32434         2.56058
O         49.56944        27.67048         2.20148
H         48.66034        28.06431         2.26837
O         42.36909        27.90485        -1.84350
H         43.20986        27.61332        -2.30621
O         42.79353        40.55920        -1.70552
H         41.90969        40.54333        -2.13473
O         43.15934        25.11154        -2.04113
H         43.33313        24.23968        -2.46943
O         36.20168        31.09454         2.51968
H         35.76379        30.27455         2.85366
O         33.76812        24.89949         1.92400
H         32.96913        25.44023         2.10060
O         29.57634        29.06507        -2.21139
H         30.28851        29.61238        -2.62082
O         44.85502        27.29213        -2.52392
H         45.04547        26.35342        -2.79861
O         44.09961        42.83399         2.00508
H         43.77280        42.08900         2.56400
O         33.85747        28.58795        -1.84277
H         33.36382        29.18336        -2.45526
O         34.92112        46.27847         3.23663
H         35.67383        46.81338         3.59580
O         27.28643        44.89601         1.27792
H         27.40083        44.10673         1.85130
O         36.71413        38.08585         0.01976
H         35.84190        38.28526        -0.39137
O         51.50220        47.40429         1.02792
H         51.56978        46.68827         1.69557
O         46.65187        43.32216        -2.01298
H         46.20209        44.00825        -2.56341
O         33.14184        38.25432        -1.56325
H         32.66252        38.50316        -2.38233
O         30.13919        44.94191         2.12425
H         29.93489        44.09641         2.58168
O         36.14076        31.47827        -1.10057
H         35.55707        31.99204        -1.69783
O         36.64437        44.19238        -0.53798
H         37.14001        44.54069        -1.31549
O         49.15688        48.73612         0.84084
H         50.05369        48.40476         1.11014
O         38.01462        37.77499         3.38111
H         38.56230        37.06795         3.80236
O         43.54320        50.27504         1.44504
H         43.21595        51.01779         2.00455
O         31.96879        37.23478         1.74971
H         32.37582        36.58333         2.36992
O         43.68563        24.44665         1.53252
H         43.05041        24.19418         2.23731
O         38.29691        32.79385         2.75822
H         38.42132        33.68107         3.16979
O         37.89258        27.44224        -1.49256
H         38.74313        27.86489        -1.74178
O         42.03110        35.91278        -1.78619
H         42.76276        36.17625        -2.38520
O         51.73493        39.86748        -1.51847
H         51.11587        39.36362        -2.08761
O         48.98522        35.18754        -2.25194
H         48.06983        35.17020        -2.60995
O         37.27363        44.40930         3.00694
H         36.78911        44.01451         3.76591
O         47.13147        28.82462         1.72570
H         46.90728        29.75228         1.95548
H         27.09036        26.98782        -0.39190
H         26.11655        29.21261         0.61324
H         26.17300        31.69949         0.56268
H         26.32016        33.73353         0.45547
H         26.38440        36.12268        -0.11114
H         26.16750        37.72076        -1.59996
H         26.20857        40.13170        -1.56731
H         26.21237        41.99547        -1.69695
H         25.94159        44.27924        -1.01320
H         27.36117        46.33372        -1.26559
H         29.08387        25.69456        -0.43092
H         29.51639        47.43085        -1.20714
H         32.91592        23.30182        -0.39585
H         30.90636        24.58473        -0.91968
H         32.91619        49.87319         0.11574
H         30.95889        48.57997        -0.51009
H         34.52465        22.35264         0.54896
H         34.36574        50.94011         0.98748
H         36.65711        21.14580         0.49855
H         36.44536        52.15341         0.86601
H         40.38388        19.00578        -0.13103
H         38.25534        20.24936        -0.13260
H         40.06233        54.18898        -0.56346
H         38.02812        52.99616         0.00461
H         42.87803        18.94331         0.09519
H         42.62178        54.29965        -0.78374
H         45.00439        20.15319        -0.29604
H         44.62589        53.03001        -1.36636
H         48.68045        22.46432        -0.85287
H         46.63763        21.17220        -1.05202
H         48.45454        50.73335        -1.24602
H         46.34752        51.91389        -1.68765
H         49.92125        23.39326         0.65689
H         49.87840        49.34616        -2.13086
H         51.90586        24.61628         1.40411
H         52.01309        48.12821        -1.95634
H         55.75511        26.69310         1.09326
H         53.62042        25.49561         1.01711
H         55.92415        46.34943        -0.92587
H         53.79855        47.63352        -0.93173
H         57.05820        28.75531         0.88026
H         57.24298        31.18358         0.58206
H         57.13742        33.35664         1.15965
H         57.14189        35.75883         0.95158
H         57.30458        37.58157         0.21120
H         57.32473        39.97814         0.61723
H         57.27498        41.97812         0.25903
H         57.16208        44.29568        -0.54295
