         210
 CSIRO Nanostructure Databank - Neutral Graphene Oxide Data Set
C         30.34478        31.79617         1.22728
C         30.54839        32.96375         0.80363
C         30.51870        36.12911         0.52485
C         30.38951        37.35200         0.38546
C         30.41031        40.42278         0.18985
C         30.34796        41.67474         0.35223
C         32.78067        29.14414         0.90621
C         31.64739        29.54949         1.33466
C         32.83516        31.69665        -0.09849
C         31.00717        30.64296         0.72775
C         32.81522        33.10716         0.05604
C         31.59474        33.82953         0.38196
C         32.82371        35.96240         0.10750
C         31.60832        35.22029         0.36921
C         32.81256        37.38984        -0.03644
C         31.49754        38.14406        -0.31773
C         32.73331        40.33404         0.13821
C         31.52967        39.58929         0.07517
C         32.72898        41.74801         0.30632
C         31.49179        42.49487         0.36388
C         32.78994        44.46305         0.31492
C         31.66568        43.91642         0.43597
C         35.47092        27.50654         0.97706
C         35.28616        28.87005         0.61118
C         34.04891        29.56693         0.50093
C         35.26295        31.68211        -0.00545
C         34.03582        30.96578         0.09109
C         35.28563        33.09126        -0.09057
C         34.05508        33.82021         0.02254
C         35.29303        35.97548         0.00308
C         34.05652        35.25148         0.04443
C         35.27621        37.40222         0.02584
C         34.01562        38.09490        -0.04421
C         35.30453        40.30243        -0.09072
C         33.99712        39.58283        -0.15504
C         35.33612        41.73876         0.32767
C         34.03149        42.47365         0.47646
C         35.32295        44.60535         0.05734
C         34.10386        43.95875         0.29997
C         35.50572        45.99582        -0.16385
C         37.85548        27.41170         0.70075
C         36.56059        26.89514         0.97420
C         37.78811        28.82282         0.37840
C         36.53608        29.49678         0.30403
C         37.81814        31.66503        -0.24620
C         36.50273        30.90051        -0.14963
C         37.77936        33.12951        -0.10946
C         36.54461        33.81602        -0.11097
C         37.76464        35.95784         0.04797
C         36.53148        35.24884        -0.03289
C         37.73475        37.37509         0.19656
C         36.53065        38.11177         0.12528
C         37.74696        40.29691         0.14949
C         36.56660        39.55610         0.10643
C         37.79318        41.73356        -0.02732
C         36.59143        42.47562         0.04682
C         37.82532        44.55594        -0.38756
C         36.58894        43.88448        -0.06110
C         37.84815        45.94734        -0.70111
C         36.58535        46.52658        -0.53172
C         40.28168        24.57956         0.71431
C         39.30035        25.32372         0.87349
C         40.31678        27.40196         0.45631
C         39.07223        26.72188         0.69576
C         40.28423        28.81885         0.25581
C         39.03949        29.52866         0.20164
C         40.28331        31.66419         0.06128
C         39.06468        30.93643         0.03547
C         40.26695        33.10204         0.03068
C         39.02161        33.82365         0.00465
C         40.26830        35.94155         0.11151
C         39.01683        35.24568         0.05812
C         40.27086        37.38340         0.22402
C         38.99897        38.07147         0.47757
C         40.28045        40.29327         0.19772
C         39.00714        39.60564         0.43028
C         40.29360        41.70581        -0.03738
C         39.05237        42.42553        -0.15327
C         40.32842        44.54624        -0.50992
C         39.06796        43.82646        -0.39100
C         40.36270        45.93217        -0.78565
C         39.05509        46.57177        -1.31502
C         40.29705        48.65545        -1.07880
C         39.21518        48.04943        -1.08420
C         42.76782        24.60752        -0.04215
C         41.67296        25.17288         0.80716
C         42.67701        27.37216        -0.13612
C         41.55443        26.68482         0.33436
C         42.72761        28.80259        -0.07801
C         41.51393        29.53011         0.10702
C         42.76574        31.67246         0.02509
C         41.52393        30.95879         0.08022
C         42.75964        33.09089         0.05881
C         41.50188        33.81029         0.08730
C         42.76485        36.00501         0.37627
C         41.48513        35.22768         0.14062
C         42.67533        37.36344        -0.34383
C         41.45253        38.11812         0.14985
C         42.73271        40.26710         0.54639
C         41.46304        39.53811         0.22597
C         42.75239        41.69973         0.07763
C         41.54288        42.39990        -0.12544
C         42.79006        44.53427        -0.32589
C         41.56732        43.83806        -0.32155
C         42.81322        45.94675        -0.46940
C         41.58628        46.66571        -0.70609
C         42.87428        48.69834        -0.76514
C         41.60532        48.13034        -0.83914
C         43.74321        25.24330        -0.45110
C         45.14307        27.35600        -0.58039
C         43.83906        26.67898        -0.86240
C         45.19091        28.73999        -0.23492
C         43.98649        29.49847        -0.13073
C         45.22709        31.66357        -0.09539
C         44.01134        30.94315        -0.03976
C         45.23966        33.09813        -0.09740
C         44.00338        33.81271         0.01274
C         45.24944        35.92531        -0.02655
C         44.03111        35.23499         0.04788
C         45.28377        37.40394        -0.14393
C         43.97999        38.15329        -0.24913
C         45.19318        40.21862         0.41473
C         43.99629        39.54647         0.18927
C         45.15186        41.65746         0.52326
C         44.00023        42.36230         0.15629
C         45.29761        44.52765         0.21022
C         44.10412        43.77793        -0.35226
C         45.28392        45.94539         0.03257
C         44.08967        46.63530        -0.35813
C         43.91268        48.00061        -0.53889
C         47.52542        27.40649        -0.68281
C         46.41099        26.80158        -0.78539
C         47.78518        28.73067        -0.38135
C         46.49569        29.40855        -0.02700
C         47.77465        31.61796        -0.39781
C         46.50662        30.93353         0.00484
C         47.73836        33.11566        -0.35662
C         46.46797        33.82777        -0.10460
C         47.75311        35.99355        -0.02420
C         46.49221        35.23426        -0.05256
C         47.74193        37.41221         0.22923
C         46.50713        38.12959         0.25673
C         47.67683        40.23932         0.79927
C         46.46542        39.51535         0.45845
C         47.61757        41.61277         1.05637
C         46.31781        42.38013         1.13160
C         47.64180        44.52051         1.04798
C         46.42780        43.83936         0.69940
C         47.54158        45.90987         0.80558
C         46.52845        46.51734         0.37319
C         50.31984        28.90624        -0.46203
C         49.02095        29.44397        -0.36419
C         50.29431        31.58596        -0.42271
C         49.07248        30.87964        -0.33335
C         50.29574        33.08853        -0.27946
C         49.01539        33.84848        -0.13146
C         50.22812        36.04049        -0.08319
C         48.97894        35.33259        -0.15937
C         50.21206        37.44600         0.23128
C         48.96610        38.13013         0.41762
C         50.16775        40.20451         1.04170
C         48.94250        39.52261         0.78175
C         50.16710        41.57080         1.61496
C         48.77399        42.32837         1.60708
C         50.02889        44.28053         1.91101
C         48.77104        43.81475         1.56641
C         51.43061        29.50390        -0.48230
C         52.66654        31.81776        -0.52530
C         51.56373        30.90326        -0.46046
C         52.68262        33.05812        -0.48741
C         51.48113        33.91937        -0.81655
C         52.56273        36.18050        -0.21886
C         51.45420        35.32798        -0.30449
C         52.56569        37.40278         0.08673
C         51.43236        38.20364         0.33297
C         52.51120        40.44814         0.86287
C         51.40575        39.56422         0.72728
C         52.54358        41.62874         1.29013
C         51.42615        42.40944         1.65293
C         51.18130        43.73842         1.98565
O         34.65329        40.07652        -1.38986
O         46.61989        30.15733         1.23571
O         47.66881        32.38378        -1.64399
O         34.78328        41.99096         1.66216
O         49.34142        41.71839         2.80464
O         49.81353        33.42981         1.05141
O         37.14416        31.13944        -1.44897
O         31.67532        31.00860        -0.51406
O         44.80203        37.91130        -1.45747
O         38.98058        38.87073         1.70621
O         43.55677        26.80331        -2.26507
H         44.28003        26.36939        -2.76403
O         31.26977        38.06258        -1.71891
H         30.52455        38.65379        -1.95416
O         42.07444        25.20492         2.15049
H         42.22013        24.29043         2.46773
O         42.40714        37.10182        -1.73828
H         43.26255        37.20429        -2.22097
O         42.84288        36.30808         1.79849
H         42.80621        35.46617         2.29856
O         42.73693        40.34430         2.02652
H         41.89083        40.75539         2.30582
O         44.39178        43.62984        -1.79096
H         45.20113        43.08322        -1.88269
O         51.33664        33.95441        -2.23774
H         52.03181        34.53401        -2.61327
O         38.99804        46.31827        -2.72277
H         39.76220        46.75833        -3.15040
O         45.98405        42.43813         2.56619
H         46.82022        42.48508         3.07814
