         320
 CSIRO Nanostructure Databank - Neutral Graphene Oxide Data Set
C         30.31864        31.56879         0.07780
C         30.23353        32.82090        -0.06867
C         30.39333        35.94178        -0.43363
C         30.27877        37.18403        -0.47707
C         30.61131        40.18186         0.32760
C         30.61544        41.38459         0.82442
C         32.65345        28.82320         0.81735
C         31.54431        29.32433         0.42410
C         32.63966        31.55111         0.43583
C         31.42659        30.74056         0.33666
C         32.63686        32.89662         0.09134
C         31.41278        33.63196        -0.20262
C         32.71036        35.70650        -0.94342
C         31.43708        34.99621        -0.44341
C         32.74174        37.24485        -0.62761
C         31.42665        38.06396        -0.98490
C         32.78603        40.17965        -0.62199
C         31.54189        39.39922        -0.30798
C         32.85507        41.62430        -0.11282
C         31.35691        42.30449        -0.14607
C         32.65321        44.38984        -0.11593
C         31.68290        43.71940         0.24961
C         35.53567        27.27926         0.90921
C         35.23253        28.59725         1.43884
C         33.88571        29.21574         1.37217
C         35.21769        31.44200         0.52609
C         33.90501        31.07835         1.22799
C         35.15507        32.79852        -0.18546
C         33.92079        33.68214         0.27512
C         35.15520        35.76963        -0.43520
C         33.95978        35.04481        -0.39542
C         35.22827        37.11901        -0.87490
C         33.99896        37.90180        -1.28921
C         35.40147        40.18495        -1.02835
C         34.04867        39.44935        -1.00345
C         35.35580        41.74101        -0.84401
C         33.98963        42.43306        -0.77075
C         35.21855        44.75680        -0.73654
C         33.94147        43.97677        -0.66269
C         35.43534        46.17550        -0.35646
C         37.90834        27.39111         0.31706
C         36.52070        26.83234         0.32492
C         37.81650        28.77466         1.00719
C         36.54514        29.48183         1.47697
C         37.73807        31.30235         0.12321
C         36.40280        30.80385         0.70076
C         37.70311        32.78704        -0.25677
C         36.44845        33.55874         0.16008
C         37.72562        35.72200         0.10890
C         36.46748        34.98903        -0.45486
C         37.67955        37.23813        -0.07160
C         36.46711        37.88364        -0.65736
C         38.02068        39.84026        -1.16994
C         36.62583        39.28587        -1.16482
C         37.69297        41.99404         0.20423
C         36.50065        42.62472        -0.39163
C         37.84470        44.73995        -0.54235
C         36.49061        43.99668        -0.48129
C         37.89083        46.33229         0.01658
C         36.53001        46.75240        -0.37773
C         40.15437        24.47000         0.79749
C         39.14831        25.17411         0.74878
C         40.31093        27.26561         0.94243
C         38.90898        26.58765         1.13192
C         40.26590        28.70803         0.92579
C         39.03629        29.43860         1.07800
C         40.28427        31.64343         0.59624
C         38.95708        30.98396         1.07012
C         40.28536        32.83367        -0.07429
C         38.99318        33.53197        -0.38892
C         40.28767        35.77404         0.08052
C         39.01901        35.08587        -0.51412
C         40.27380        37.29498        -0.30724
C         38.98972        37.98352         0.21277
C         40.17245        40.21116         0.22878
C         39.02036        39.39509        -0.34525
C         40.25716        41.68229        -0.24205
C         38.97406        42.49120         0.00275
C         40.39239        44.61881        -0.47556
C         39.07445        44.00900         0.05622
C         40.44334        46.16534        -0.28287
C         39.11632        47.00510        -0.61412
C         40.48429        48.89064         0.38845
C         39.46358        48.33516        -0.01713
C         42.43506        24.61581        -0.38802
C         41.56021        24.97176         0.86556
C         42.83069        27.19281         0.97229
C         41.48332        26.51784         0.90282
C         42.80214        28.67593         0.65080
C         41.52224        29.46181         0.72057
C         42.85336        31.63408         0.94606
C         41.52278        30.93511         1.17476
C         42.99584        32.99078         1.16801
C         41.47231        33.58987        -0.68027
C         42.82000        35.81233         0.09031
C         41.57825        35.09612        -0.38513
C         42.73778        37.26024         0.63318
C         41.50321        38.05926         0.19287
C         42.75281        40.18874         0.57413
C         41.48417        39.42273         0.22105
C         42.79014        41.67285         0.08315
C         41.47775        42.39379         0.41137
C         42.76664        44.49615         0.46015
C         41.59487        43.87601         0.09330
C         42.65796        45.84391         1.00474
C         41.61159        46.77211         0.47264
C         43.06982        48.67247         0.80530
C         41.64345        48.22459         1.06012
C         43.54662        25.27800        -0.36211
C         45.10420        27.34728        -0.36359
C         43.94989        26.50401         0.10003
C         45.38750        28.53796         0.60337
C         44.11300        29.35828         0.91749
C         45.37471        31.57189         0.75443
C         44.11148        30.84916         0.98703
C         45.37832        32.91676         0.51055
C         44.17002        33.73000         0.67672
C         45.33893        35.87926         0.02674
C         44.10189        35.07596         0.36930
C         45.22057        37.37184         0.23237
C         44.03917        38.00837         0.34072
C         45.24705        40.25737         0.03629
C         43.93525        39.46197        -0.06918
C         45.26492        41.58844         0.80370
C         44.01932        42.41047         0.60848
C         45.32982        44.52343         0.75916
C         44.04430        43.77748         0.65898
C         45.34072        46.03709         0.29192
C         45.04456        47.09616         1.35602
C         44.19625        48.20618         1.03008
C         47.54860        27.37164        -0.43704
C         46.48787        26.74215        -0.55579
C         48.11432        28.62054         0.12180
C         46.51274        29.44348         0.04219
C         47.82323        31.49288         0.18167
C         46.66347        30.74530         0.80214
C         47.92890        32.91718         0.62891
C         46.65661        33.40149        -0.14153
C         47.82529        35.88683         0.19903
C         46.60981        35.44635         0.72873
C         47.76118        37.32173        -0.34763
C         46.56937        38.05822         0.34228
C         47.80137        40.24574         0.44267
C         46.55252        39.54005         0.01769
C         47.76253        41.53102         0.88765
C         46.55015        42.36908         0.51246
C         47.87208        44.57149         1.15570
C         46.50078        43.83112         0.95042
C         47.72329        45.64758         0.13632
C         46.75222        46.34848        -0.16604
C         49.56671        29.00318        -2.01832
C         49.03623        29.51939        -0.70003
C         50.04937        31.40889        -0.82831
C         48.61376        30.98451        -0.80098
C         50.45814        32.76976        -0.19422
C         49.22238        33.64162         0.28356
C         50.21923        35.93324        -0.54443
C         49.13024        35.16047         0.18783
C         50.34523        37.32317         0.08591
C         49.04021        38.04888         0.12105
C         50.34457        40.12912         0.59569
C         49.08404        39.56399        -0.02062
C         50.23955        41.31081         1.31152
C         49.02382        42.16747         1.31119
C         50.44506        44.24289         0.81765
C         49.13167        43.69312         1.20920
C         50.53315        29.61051        -2.52861
C         52.12376        31.70068        -2.25200
C         50.85142        31.03517        -2.55126
C         52.35073        32.83961        -1.81205
C         51.25797        33.69995        -1.21916
C         52.55559        35.96345        -0.59431
C         51.52513        35.08228        -0.66808
C         52.67124        37.23077        -0.34862
C         51.64074        38.10215        -0.01183
C         52.75667        40.35378         0.08877
C         51.62406        39.50509         0.27039
C         52.65696        41.65453         0.01096
C         52.61716        42.98491         0.02751
C         51.43304        43.59130         0.34172
O         49.62404        37.51683         1.34185
O         33.17225        40.07189        -2.02046
O         49.62718        34.49591         1.41336
O         42.19000        33.06925        -1.51011
O         34.38976        28.71980         2.60319
O         34.60057        42.15282        -2.03327
O         42.16307        29.11754        -0.56807
O         46.70705        33.62717        -1.33930
O         42.43446        35.79856        -1.33949
O         36.70284        37.85363         0.86038
O         43.36899        46.13745         2.00152
O         41.57536        46.73046        -0.99911
O         38.28362        32.98298        -1.57370
O         49.06671        43.02258         2.52089
O         50.28054        30.14971        -0.05877
O         34.41617        44.55868        -1.90744
O         33.87039        31.49205         2.46469
O         35.93320        39.73980        -2.35044
O         44.14905        29.98604         2.23530
O         45.99589        40.09358        -1.21631
O         37.78583        35.55913         1.53377
H         37.01108        36.03190         1.91083
O         31.30136        38.18762        -2.38433
H         30.68958        38.92556        -2.58681
O         47.78498        45.22774         2.42035
H         48.28124        44.69072         3.07774
O         38.02543        46.43571         1.41593
H         37.14670        46.34819         1.83743
O         45.53928        35.77390        -1.41824
H         44.66006        35.63873        -1.83791
O         51.25230        32.49099         0.94290
H         51.33869        33.31925         1.46448
O         42.67199        37.17954         2.07779
H         42.64510        38.10329         2.41850
O         36.73921        29.81418         2.85674
H         35.91282        30.24266         3.17740
O         35.03727        32.56333        -1.58974
H         35.48914        33.29841        -2.06972
O         32.93618        37.40005         0.78424
H         32.17267        37.00718         1.25819
O         38.13547        40.88564        -2.01604
H         37.30978        40.90303        -2.56450
O         45.80266        47.12396         2.42478
H         45.60736        47.88799         3.00208
O         36.54269        33.55844         1.58606
H         35.66926        33.84076         1.96119
O         37.94840        30.52541        -1.08064
H         38.21727        31.15936        -1.79049
O         33.97911        33.99035         1.69942
H         33.80702        33.13883         2.21087
O         41.30970        30.89302         2.62480
H         42.12798        30.49964         3.01261
O         39.07359        35.37240        -1.91162
H         38.58478        34.65522        -2.38200
O         49.79676        36.17954        -1.89910
H         50.22201        37.00022        -2.22400
O         41.44702        48.15837         2.44534
H         41.31648        49.05917         2.80436
O         38.04156        44.79828        -1.94913
H         37.25946        45.21859        -2.36601
O         37.38074        40.92374         0.97184
H         38.21208        40.60928         1.43289
O         40.49720        44.38992        -1.89765
H         41.25772        44.91941        -2.22491
O         40.47068        41.65842        -1.66874
H         40.31363        42.56884        -2.02530
O         39.87690        40.36181         1.67273
H         39.86262        39.43775         2.04387
O         38.54155        26.67539         2.49633
H         39.10610        26.07444         3.02394
O         47.75893        32.93114         2.06275
H         48.58906        33.31131         2.43809
O         36.60657        34.79112        -1.89349
H         36.37589        35.62892        -2.35103
O         46.42320        34.94206         1.96481
H         47.27348        34.92094         2.45079
O         47.62564        37.48398        -1.76312
H         46.93915        36.83498        -2.06058
O         30.85087        42.27817        -1.44293
H         29.94615        42.65031        -1.44752
O         46.92877        30.44438         2.18377
H         47.12988        31.30035         2.63260
O         39.08626        37.95538         1.66951
H         38.16843        38.09530         2.00402
O         40.27498        37.47195        -1.72774
H         41.06756        37.01115        -2.08812
O         40.35270        35.61644         1.49657
H         39.51779        35.96025         1.89978
O         51.19845        41.67748         2.17544
H         50.87208        42.46929         2.66716
O         48.57591        28.48446         1.42342
H         49.35887        29.06070         1.55107
O         32.65978        35.47448        -2.36371
H         33.06073        36.26092        -2.82226
O         42.25215        24.49966         1.99657
H         42.40754        23.53725         1.89864
O         50.32115        33.84322        -2.28003
H         50.70496        34.39327        -2.99356
O         43.01797        41.73614        -1.33458
H         42.20774        41.38558        -1.79112
O         46.87499        38.01277         1.76693
H         46.23142        38.57617         2.24708
O         45.34046        41.22408         2.20896
H         44.45273        40.85676         2.46308
O         38.41117        27.57606        -0.99080
H         38.02910        28.39942        -1.36992
O         49.12992        39.83653        -1.44862
H         48.36245        39.38287        -1.87055
O         39.17356        44.26402         1.49795
H         38.35754        43.93377         1.93076
O         44.39054        46.14508        -0.74553
H         44.43468        47.04023        -1.14294
O         45.82576        27.94250         1.82043
H         46.08575        28.67036         2.43148
O         46.70169        42.54993        -0.91806
H         45.82996        42.78553        -1.30271
O         43.30835        27.08158         2.32674
H         43.28276        26.12922         2.57695
O         38.67073        31.52455         2.35604
H         39.36332        31.21181         2.97940
O         41.32927        42.39526         1.85554
H         40.51841        42.92451         2.05972
O         38.97978        47.10301        -2.00567
H         39.80685        47.48143        -2.37102
O         33.92101        37.76563        -2.72512
H         33.40494        38.54198        -3.05844
O         42.05472        33.70971         1.81606
H         41.39883        33.11228         2.23643
O         44.63267        27.84568        -1.63174
H         44.43772        27.08158        -2.21567
O         42.88038        40.16766         2.02446
H         42.16633        40.76868         2.36310
O         46.31011        29.80502        -1.30077
H         45.87910        29.06694        -1.79675
O         50.19242        31.68376        -3.56640
H         49.38562        31.18944        -3.81425
O         33.24829        41.59665         1.27213
H         32.45735        41.33841         1.80179
O         43.59208        39.32435        -1.47041
H         44.43421        39.40829        -1.97851
