         334
 CSIRO Nanostructure Databank - Neutral Graphene Oxide Data Set
C         30.83373        56.93150        -1.60172
C         30.88815        58.29039        -1.98434
C         29.83448        58.89621        -2.71274
C         31.11327        60.94526        -2.96853
C         29.94691        60.20994        -3.17322
C         32.86958        52.97214         0.36041
C         32.76678        54.45394         0.58615
C         31.76570        55.02716        -0.37803
C         32.92381        57.22170        -0.21237
C         31.84574        56.33382        -0.80455
C         33.15496        58.48975        -0.99791
C         32.08228        59.05954        -1.71995
C         33.42934        61.07998        -2.09541
C         32.20970        60.37850        -2.26742
C         35.31245        48.67394         0.25019
C         35.30390        50.10638         0.20923
C         34.13780        50.85474         0.13411
C         35.28123        52.98821         0.69740
C         34.08951        52.29130         0.34802
C         35.26720        54.43660         1.12674
C         34.10380        55.16384         0.50564
C         35.46406        57.17235         0.08513
C         34.19143        56.46582         0.11572
C         35.55723        58.46439        -0.40983
C         34.40216        59.13997        -0.94876
C         35.78178        61.16840        -1.35393
C         34.53518        60.46990        -1.49173
C         37.78816        44.38863         0.46684
C         37.75240        45.80432         0.46395
C         36.53357        46.52367         0.39848
C         37.80965        48.67540         0.22939
C         36.49692        47.93228         0.34229
C         37.75947        50.06281         0.77771
C         36.59868        50.81418         0.37528
C         37.71344        52.94417         1.35307
C         36.55420        52.31253         0.65126
C         37.79480        54.40812         1.14868
C         36.59910        55.11397         0.86469
C         37.92449        57.14595         0.54450
C         36.66764        56.46311         0.49007
C         38.03140        58.52429         0.15863
C         36.92149        59.04341        -0.71943
C         38.15817        61.20984        -0.74060
C         36.92598        60.53927        -0.87721
C         40.24185        40.17653        -0.12198
C         40.22429        41.45443         0.33128
C         38.91715        42.16070         0.61225
C         40.23340        44.35151         0.55582
C         38.99009        43.67289         0.52761
C         40.24433        45.79165         0.58758
C         39.01009        46.51455         0.57446
C         40.24431        48.62077         0.83272
C         39.03109        47.91243         0.64068
C         40.25222        50.02968         1.07449
C         38.93853        50.62637         1.52290
C         40.25013        52.86613         1.60938
C         38.95502        52.14970         1.63871
C         40.20546        54.34906         1.90842
C         39.02059        55.05659         1.27030
C         40.28406        57.16993         1.21999
C         39.07260        56.45008         1.01295
C         40.28056        58.57649         1.07414
C         39.18242        59.27101         0.42315
C         40.51198        61.37712        -0.29991
C         39.31180        60.63462        -0.15594
C         42.61993        35.93648        -0.95847
C         42.65813        37.26164        -0.55669
C         41.45012        38.04143        -0.52470
C         42.72963        40.05646        -0.03628
C         41.47023        39.39384        -0.23860
C         42.69107        41.55862        -0.05097
C         41.51541        42.13423         0.74642
C         42.68934        44.32435         0.48344
C         41.48930        43.64493         0.57000
C         42.72889        45.80696         0.22201
C         41.46019        46.50847         0.59661
C         42.71552        48.63708         0.88226
C         41.48196        47.91074         0.76922
C         42.70332        50.04394         1.03654
C         41.44686        50.74426         1.15577
C         42.70329        52.90407         1.39428
C         41.44110        52.18921         1.39812
C         42.72097        54.32915         1.53999
C         41.50381        55.05809         1.64613
C         42.72125        57.20878         1.58661
C         41.50678        56.48060         1.53953
C         42.71998        58.63024         1.58401
C         41.44484        59.25068         1.51224
C         43.00655        61.38990         0.37643
C         41.65987        61.20236         0.52499
C         45.09242        33.23569        -1.89729
C         43.88020        33.83838        -1.66624
C         45.14641        35.77058        -0.52304
C         43.79477        35.07732        -0.89054
C         45.12195        37.21761        -0.28463
C         43.92703        37.91202        -0.22978
C         45.19069        40.05063         0.13004
C         43.92899        39.35319        -0.01829
C         45.20090        41.47580         0.30864
C         43.98583        42.21379         0.33543
C         45.16126        44.34239         0.65003
C         43.96131        43.62150         0.49285
C         45.17281        45.77910         0.77594
C         43.96436        46.50616         0.72849
C         45.19171        48.61262         1.08946
C         43.96508        47.91060         0.90277
C         45.18286        50.05879         1.15101
C         43.94041        50.76267         1.13246
C         45.16436        52.91236         1.20707
C         43.93293        52.19645         1.24917
C         45.17015        54.34302         1.29923
C         43.96067        55.03428         1.49599
C         45.20242        57.23709         1.34239
C         44.00587        56.49250         1.88032
C         45.14542        58.64831         1.21573
C         43.96303        59.37310         1.48169
C         45.29997        61.52542         1.31342
C         43.94603        60.90986         1.49060
C         46.32626        33.86910        -1.59514
C         47.57147        35.92314        -1.06862
C         46.38376        35.15752        -1.04605
C         47.63517        37.25098        -0.59187
C         46.43543        37.85113         0.11135
C         47.64701        40.05416         0.10992
C         46.42147        39.36139         0.07104
C         47.67823        41.46978         0.35167
C         46.43633        42.14604         0.49858
C         47.71345        44.32176         0.76000
C         46.40815        43.57987         0.79742
C         47.65590        45.79522         0.43484
C         46.40066        46.49502         0.88251
C         47.70815        48.60051         1.11597
C         46.42380        47.89099         1.03732
C         47.69464        50.07219         1.50426
C         46.40068        50.77475         1.18647
C         47.63338        52.89509         0.95725
C         46.40985        52.19460         1.11832
C         47.72523        54.38081         1.15225
C         46.39503        55.08586         1.17993
C         47.66217        57.17787         0.83648
C         46.40044        56.48666         1.13048
C         47.67094        58.65366         1.14670
C         46.38255        59.35124         0.67202
C         47.70031        61.48421         1.03815
C         46.44368        60.82528         1.03084
C         48.80975        37.98884        -0.65661
C         50.09130        40.02755        -0.20176
C         48.88932        39.35673        -0.21243
C         50.23783        41.43654         0.29698
C         48.92124        42.18270         0.34902
C         50.15841        44.32420         0.25131
C         48.96065        43.59529         0.41631
C         50.15946        45.84160         0.25778
C         48.93857        46.41618         1.00126
C         50.20413        48.61758         1.17051
C         48.89620        47.92928         1.03453
C         50.20634        50.13802         1.08979
C         48.91002        50.82246         1.00262
C         50.09153        52.93277         0.42761
C         48.86735        52.19235         0.77522
C         50.05454        54.31936         0.21116
C         48.70628        55.02202         0.15378
C         49.95891        57.24061        -0.17702
C         48.76803        56.51577         0.40074
C         50.05314        58.68353         0.26991
C         48.89877        59.37619         0.65889
C         50.14561        61.49077         0.68522
C         48.92023        60.79722         0.80468
C         51.31733        42.20662        -0.49458
C         52.59744        44.32919        -0.03150
C         51.39378        43.66178        -0.05764
C         52.71920        45.69371         0.51608
C         51.43707        46.43409         0.81235
C         52.61243        48.61817         0.58040
C         51.45286        47.91426         0.83714
C         52.56510        50.05270         0.36524
C         51.40914        50.78942         0.54854
C         52.47853        52.90741        -0.14155
C         51.32341        52.21582         0.25409
C         52.49341        54.33207        -0.18247
C         51.26100        55.04936        -0.03118
C         52.48632        57.17048        -0.13965
C         51.26960        56.48202        -0.05963
C         52.58907        58.65895         0.13501
C         51.26961        59.37808         0.18514
C         52.60511        61.43774         0.40045
C         51.33133        60.78193         0.42847
C         53.91837        46.51646         0.32535
C         55.07982        48.66983         0.20567
C         53.87451        47.89607         0.36488
C         55.05012        50.02704        -0.07239
C         53.70095        50.62145        -0.45183
C         54.99081        52.88181        -0.59204
C         53.69227        52.14514        -0.52782
C         54.99314        54.34680        -0.41967
C         53.72595        55.05722        -0.32508
C         55.01214        57.23318        -0.21768
C         53.70670        56.46069        -0.25937
C         54.91660        58.62647        -0.80318
C         53.62020        59.42816        -0.72691
C         54.95780        61.60603        -0.04019
C         53.76711        60.85059        -0.11379
C         56.25039        50.77778        -0.18167
C         57.46831        52.89519        -0.54055
C         56.27558        52.15723        -0.43295
C         57.45596        54.30186        -0.73038
C         56.19107        55.00381        -0.59592
C         57.39311        57.15318        -1.26962
C         56.13294        56.45230        -0.87399
C         57.37718        58.63019        -1.28739
C         56.02418        59.17748        -1.36685
C         57.45703        61.53312        -0.49055
C         56.14129        61.29465        -0.77554
C         58.64930        55.02691        -0.94108
C         59.82986        57.20393        -1.08147
C         58.67154        56.43183        -1.13221
C         59.80394        58.63672        -1.09857
C         58.53949        59.36331        -1.23325
C         59.88722        61.50412        -0.99774
C         58.55254        60.90065        -1.34882
C         60.99273        59.33938        -0.91880
C         61.01338        60.76526        -0.83296
O         52.11420        45.77886         1.89389
O         36.92398        51.82386        -0.70593
O         55.88464        60.47102        -1.91603
O         41.28044        60.59596         1.77433
O         47.15725        43.96554         2.04779
O         38.01499        52.55036         2.73652
O         50.36471        49.44128         2.39166
O         54.23612        52.55792        -1.83809
O         44.40653        34.98038         0.44390
O         56.42280        56.66400        -2.28776
O         46.35057        59.23991        -0.77137
H         45.54101        59.68429        -1.09737
O         38.77465        50.09880         2.88934
H         38.20400        50.74501         3.36900
O         53.43019        50.13145        -1.80025
H         53.84846        50.78216        -2.41322
O         53.07476        59.56866        -2.04749
H         53.76530        59.98703        -2.60560
O         49.08225        45.98890         2.36863
H         48.24687        46.16732         2.84898
O         53.10303        58.75189         1.51458
H         52.41575        58.39504         2.11698
O         32.38840        57.63751         1.10107
H         31.61824        58.22074         0.92830
O         48.21480        54.85030        -1.20769
H         48.27331        53.89781        -1.43480
O         48.34448        54.58728         2.46461
H         47.77908        54.14763         3.13433
O         37.24125        58.51961        -2.06515
H         36.56805        58.88029        -2.68129
O         38.01460        48.89150        -1.22835
H         37.32479        49.52134        -1.53436
O         42.83359        45.93370        -1.25728
H         42.04739        45.48524        -1.63732
O         39.97110        54.45748         3.36178
H         39.15677        53.92788         3.54662
O         50.17177        46.30030        -1.11796
H         49.32259        46.01179        -1.53492
O         46.61469        37.49647         1.52766
H         45.78175        37.71427         1.99732
O         55.40800        57.34105         1.18283
H         54.70459        57.88059         1.62679
O         41.75136        41.84814         2.14777
H         41.06634        42.30629         2.67694
O         49.69452        57.30358        -1.61829
H         49.20931        56.48083        -1.86345
O         47.71394        58.77429         2.59752
H         46.94288        58.28678         2.96152
O         52.56727        41.55013        -0.32040
H         52.64877        41.36447         0.64101
O         37.86917        41.65725        -0.22085
H         38.08263        41.88439        -1.14883
O         43.51959        61.38279         2.78600
H         42.55664        61.19190         2.87527
O         42.43429        41.94452        -1.44461
H         43.15636        41.57376        -1.99422
O         47.61428        45.87928        -1.02809
H         47.16524        46.71507        -1.27674
O         47.78510        50.08039         2.97545
H         48.70769        49.79022         3.19172
O         32.28386        54.70731         1.96463
H         32.17128        55.68634         2.02872
O         44.16267        56.50391         3.36299
H         43.36294        56.07549         3.73858
O         35.05262        54.49124         2.57784
H         34.07616        54.41519         2.71957
O         58.31944        61.23777        -2.74070
H         57.39813        60.95494        -2.94962
O         50.75801        41.36436         1.66631
H         50.08025        40.92461         2.22192
H         29.97884        56.31765        -1.92364
H         28.92367        58.31642        -2.91950
H         31.19992        61.96646        -3.36604
H         29.11171        60.66149        -3.72715
H         31.93907        52.41659         0.16996
H         30.92363        54.39610        -0.70205
H         33.52211        62.10337        -2.48812
H         34.34618        48.14616         0.24683
H         33.17933        50.33074        -0.00192
H         35.81799        62.23633        -1.61871
H         36.84389        43.82624         0.41739
H         35.58693        45.96191         0.37218
H         38.21743        62.25790        -1.07443
H         39.28876        39.67717        -0.35878
H         38.62235        41.90383         1.67229
H         40.50105        62.21236        -1.01735
H         41.68761        35.52315        -1.37279
H         40.49278        37.53298        -0.71285
H         43.42490        61.75087        -0.57284
H         45.12121        32.27606        -2.43354
H         42.95529        33.40431        -2.07348
H         45.37450        62.59758         1.55323
H         47.25988        33.39037        -1.92474
H         48.47780        35.47700        -1.50772
H         47.72442        62.57123         1.21180
H         49.71766        37.52323        -1.07058
H         51.01355        39.49330        -0.47697
H         50.17216        62.58198         0.81567
H         51.06428        42.17770        -1.58935
H         53.50880        43.79995        -0.35048
H         52.64929        62.48581         0.73621
H         54.86386        46.01628         0.06400
H         56.04869        48.15652         0.30841
H         54.96591        62.48522         0.62366
H         57.20598        50.25340        -0.02336
H         58.43223        52.36542        -0.50488
H         57.73029        62.13028         0.39109
H         59.60672        54.48417        -0.91557
H         60.80416        56.70735        -0.95311
H         59.93599        62.60163        -0.94245
H         61.93480        58.78333        -0.80837
H         61.97215        61.26285        -0.62545
