         430
 CSIRO Nanostructure Databank - Neutral Graphene Oxide Data Set
C         27.95313        27.31264        -0.26005
C         27.96227        28.74742        -0.49823
C         26.78656        29.41614        -0.92749
C         27.91455        31.57304        -0.80942
C         26.75052        30.79525        -1.03277
C         27.91750        33.02089        -0.84591
C         26.72760        33.75691        -1.08597
C         27.89655        35.87946        -0.79701
C         26.71743        35.13651        -1.06252
C         27.86448        37.32645        -0.67132
C         26.70231        38.07997        -0.80583
C         27.86324        40.25133        -0.75665
C         26.69994        39.49268        -0.84141
C         27.91249        41.68194        -0.97641
C         26.72421        42.42677        -1.23310
C         27.98073        44.50781        -1.27314
C         26.75351        43.79442        -1.37373
C         28.02530        45.91944        -1.40000
C         30.29148        27.37385         0.56413
C         29.03505        26.66752         0.22388
C         30.32363        28.90058         0.44899
C         29.13027        29.48538        -0.28114
C         30.36119        31.60422        -0.45879
C         29.12836        30.88640        -0.51279
C         30.36469        32.99829        -0.49108
C         29.12508        33.73817        -0.61400
C         30.34433        35.90270        -0.39254
C         29.11311        35.17108        -0.59549
C         30.38942        37.29481        -0.39681
C         29.10745        38.02634        -0.32635
C         30.38682        40.27002        -0.57804
C         29.11059        39.56956        -0.38593
C         30.39838        41.64302        -0.74485
C         29.15205        42.36979        -0.89761
C         30.43391        44.49496        -0.97714
C         29.19078        43.78736        -1.04965
C         30.43494        45.91311        -1.01031
C         29.21781        46.59993        -1.24748
C         32.84748        24.53164         0.23505
C         31.65812        25.18152         0.27072
C         32.87294        27.37183         0.38339
C         31.60712        26.62658         0.53893
C         32.85915        28.78592         0.12162
C         31.64588        29.45422        -0.03670
C         32.89824        31.59406        -0.40347
C         31.63764        30.82132        -0.65641
C         32.84285        33.01623        -0.45949
C         31.62591        33.69468        -0.46051
C         32.87569        35.91533        -0.15918
C         31.58872        35.14902        -0.21026
C         32.84928        37.38477        -0.28081
C         31.63010        38.03345        -0.38555
C         32.88600        40.23956        -0.42161
C         31.64546        39.48055        -0.82510
C         32.89656        41.63428        -0.52789
C         31.66351        42.37131        -0.76139
C         32.96687        44.50874        -1.04287
C         31.66662        43.75857        -0.85625
C         32.88979        45.95967        -0.61661
C         31.67018        46.64615        -0.72026
C         32.80571        48.73904        -0.16456
C         31.65072        48.04468        -0.46884
C         35.37128        23.09835         0.56104
C         35.32428        24.52157         0.58763
C         34.09752        25.22680         0.42599
C         35.33672        27.37606         0.48505
C         34.08835        26.65632         0.41952
C         35.34417        28.80549         0.23386
C         34.13446        29.48465        -0.03765
C         35.36470        31.65416        -0.27102
C         34.12206        30.91144        -0.27771
C         35.38278        33.03810        -0.35257
C         34.12334        33.72478        -0.83827
C         35.39559        35.97865        -0.39207
C         34.12326        35.23439        -0.61936
C         35.34246        37.40185         0.02924
C         34.09848        38.10306        -0.11150
C         35.22395        40.26519         0.39477
C         34.05468        39.51360        -0.05588
C         35.27555        41.69199         0.14743
C         34.13414        42.37309        -0.31299
C         35.36027        44.51162        -0.23373
C         34.15579        43.78514        -0.47550
C         35.32964        45.97252        -0.19926
C         34.08007        46.66369        -0.27675
C         35.27066        48.78245         0.28409
C         34.05172        48.07627        -0.05990
C         35.33081        50.19134         0.36538
C         37.76172        23.11587         1.02455
C         36.54970        22.42049         0.75630
C         37.74669        24.52495         1.06522
C         36.54126        25.24559         0.83525
C         37.74775        27.45398         1.05151
C         36.51631        26.67989         0.77597
C         37.79240        28.86452         0.58554
C         36.60669        29.49861         0.21181
C         37.86076        31.67829        -0.01286
C         36.65023        30.88284        -0.40457
C         37.84096        33.06343         0.03528
C         36.60429        33.79373        -0.19035
C         37.83469        35.93273         0.05766
C         36.63341        35.20013        -0.18330
C         37.81768        37.35912         0.15693
C         36.56299        38.06114         0.23222
C         37.83300        40.24702         0.40047
C         36.58090        39.49231         0.55649
C         37.82537        41.66656         0.33296
C         36.51331        42.41697         0.59450
C         37.81681        44.56411         0.32652
C         36.52673        43.84134         0.13130
C         37.80026        46.00267        -0.18953
C         36.50087        46.68718         0.11996
C         37.70095        48.68058         1.06944
C         36.48123        48.04827         0.43191
C         37.71202        50.18648         0.93246
C         36.54581        50.86021         0.61171
C         40.24262        20.27069         1.16993
C         39.04973        20.97073         1.24483
C         40.24811        23.08823         1.03619
C         39.01661        22.38197         1.14990
C         40.26334        24.52046         1.01725
C         39.01678        25.20399         1.54703
C         40.35856        27.42948         1.30979
C         39.00843        26.72868         1.40277
C         40.26258        28.86436         0.80812
C         39.06125        29.52818         0.55203
C         40.29492        31.71914         0.55081
C         39.16120        30.92647        -0.03073
C         40.27573        33.08669         0.53944
C         39.05987        33.81316         0.26125
C         40.30446        35.96012         0.34671
C         39.06225        35.21812         0.23866
C         40.28927        37.39378         0.28037
C         39.04645        38.08860         0.25152
C         40.29014        40.24166         0.24149
C         39.04939        39.52742         0.27283
C         40.28483        41.67228         0.14672
C         39.02927        42.35881         0.15488
C         40.27011        44.57428        -0.08408
C         38.99523        43.80020        -0.30207
C         40.28095        45.94213         0.15729
C         39.04590        46.69226         0.29293
C         40.26910        48.70305         0.88589
C         39.02730        48.01610         0.68811
C         40.26084        50.10133         1.35180
C         38.92876        50.88878         1.36991
C         40.21474        52.98995         1.44799
C         39.02396        52.35627         1.32266
C         42.69820        20.24758         0.80016
C         41.46660        20.94811         0.94704
C         42.69287        23.07519         0.65812
C         41.46895        22.37179         0.87425
C         42.67792        24.50287         0.57155
C         41.43742        25.20330         0.73618
C         42.71602        27.37396         0.48597
C         41.37383        26.68073         0.43298
C         42.71658        28.79960         0.48812
C         41.50876        29.52220         0.61425
C         42.64051        31.69937        -0.12515
C         41.60357        31.01286         0.79321
C         42.77806        33.12832         0.33256
C         41.55044        33.83207         0.86364
C         42.75981        35.98576         0.41502
C         41.52176        35.28450         0.46576
C         42.75962        37.40907         0.33867
C         41.52326        38.11065         0.30422
C         42.76603        40.25782         0.24383
C         41.52637        39.54218         0.26170
C         42.75065        41.68852         0.09330
C         41.51519        42.37397         0.01615
C         42.78967        44.55648        -0.04431
C         41.52600        43.82652        -0.40703
C         42.76199        45.98285         0.16324
C         41.53541        46.66338         0.29759
C         42.74691        48.78405         0.76912
C         41.50180        48.06293         0.63069
C         42.73384        50.20412         1.02777
C         41.50600        50.87824         1.26255
C         42.69234        52.99986         1.43801
C         41.47463        52.27871         1.42891
C         43.87473        20.92795         0.58372
C         45.13907        23.07368         0.29475
C         43.91070        22.35139         0.50594
C         45.13114        24.50517         0.29595
C         43.90517        25.21463         0.41948
C         45.18037        27.36748         0.45666
C         43.91623        26.65913         0.43044
C         45.15935        28.80354         0.44442
C         43.96216        29.51076         0.35900
C         45.22369        31.69964         0.07069
C         43.98002        30.90003        -0.25148
C         45.21871        33.11121         0.09057
C         43.96660        33.82453         0.25628
C         45.22197        35.97707         0.34400
C         43.99047        35.26719         0.37860
C         45.21115        37.39990         0.43279
C         44.00460        38.11865         0.37542
C         45.24037        40.28383         0.28217
C         44.00161        39.56274         0.32103
C         45.23221        41.70558         0.12564
C         43.99687        42.40590         0.01518
C         45.26850        44.59314        -0.25548
C         43.98175        43.84364        -0.03840
C         45.22928        46.01984         0.22641
C         44.00725        46.69526         0.34138
C         45.21654        48.83600         0.70467
C         43.97698        48.11063         0.62233
C         45.20698        50.25285         0.87524
C         43.94916        50.94496         1.05455
C         43.89707        52.34436         1.27606
C         47.55039        23.10958        -0.09007
C         46.37283        22.40603         0.10811
C         47.58310        24.51812        -0.05563
C         46.37017        25.22871         0.19570
C         47.73746        27.29271         0.63308
C         46.38840        26.64607         0.35541
C         47.72707        28.81784         0.51056
C         46.43090        29.56219         0.47895
C         47.67611        31.70436         0.07192
C         46.43954        31.00896         0.16240
C         47.65925        33.10581        -0.05708
C         46.44706        33.83097         0.07437
C         47.70400        35.98444         0.15407
C         46.46024        35.26576         0.19021
C         47.73404        37.39690         0.32647
C         46.48710        38.12583         0.75866
C         47.70669        40.27570         0.34600
C         46.48178        39.58814         0.38464
C         47.71789        41.71187         0.31607
C         46.48663        42.42322         0.18548
C         47.70447        44.54994         0.34356
C         46.50523        43.83752         0.14231
C         47.67630        45.98795         0.43362
C         46.47083        46.70312         0.40714
C         47.67230        48.87451         0.58710
C         46.45617        48.14683         0.59135
C         47.63670        50.27946         0.71257
C         46.43588        50.94955         0.86949
C         49.96712        24.59417        -0.83705
C         48.82065        25.24657        -0.32366
C         50.08524        27.35423        -0.32538
C         48.88564        26.63545        -0.09751
C         50.10573        28.79328        -0.17277
C         48.95433        29.52438         0.06520
C         50.11700        31.67338        -0.29242
C         48.93455        30.97143        -0.03056
C         50.16422        33.09463        -0.32235
C         48.87988        33.85096        -0.50775
C         50.15648        35.95922        -0.05811
C         48.92720        35.28641        -0.06820
C         50.18024        37.38615         0.08521
C         48.94718        38.10333         0.24627
C         50.18198        40.24356         0.25770
C         48.96315        39.55002         0.31836
C         50.21225        41.69044         0.35416
C         48.95327        42.42324         0.41272
C         50.18736        44.57725         0.50187
C         48.94272        43.83762         0.47830
C         50.19341        45.95674         0.42988
C         48.94129        46.70415         0.82201
C         50.11099        48.80136         0.13811
C         48.93532        48.16488         0.45343
C         51.14587        25.28764        -1.05729
C         52.49766        27.39275        -1.04370
C         51.24757        26.67261        -0.80552
C         52.57415        28.77139        -0.78994
C         51.42995        29.51479        -0.14835
C         52.63794        31.65350        -0.54006
C         51.33897        30.91392        -0.73559
C         52.63791        33.06103        -0.40014
C         51.38263        33.78851        -0.32985
C         52.62538        35.91026        -0.12661
C         51.40482        35.22751        -0.19300
C         52.65106        37.35484        -0.01977
C         51.41229        38.08287         0.05669
C         52.65075        40.20184         0.08590
C         51.42565        39.51430         0.14866
C         52.67202        41.65011         0.14765
C         51.42916        42.36940         0.34034
C         52.71119        44.58643         0.30492
C         51.47067        43.82623         0.77916
C         52.60604        45.96924        -0.20022
C         51.39047        46.70641         0.10214
C         51.32972        48.08560        -0.02667
C         54.85677        27.40965        -1.69015
C         53.66771        26.73447        -1.53285
C         54.95121        28.80265        -1.40507
C         53.77356        29.49533        -0.99546
C         55.09290        31.57732        -0.77465
C         53.83878        30.91859        -0.74646
C         55.17106        33.01212        -0.29988
C         53.86201        33.76584        -0.38403
C         55.10583        35.87260        -0.30361
C         53.87561        35.18174        -0.25662
C         55.16327        37.28866         0.20762
C         53.87132        38.04473        -0.00602
C         55.12232        40.15234        -0.16679
C         53.89270        39.47718        -0.02395
C         55.21066        41.65120        -0.13260
C         53.87118        42.32240        -0.02633
C         54.88566        44.40022        -1.03726
C         53.92406        43.79548        -0.09844
C         54.76985        45.73745        -1.34881
C         53.65939        46.51408        -0.91016
C         56.17668        29.50745        -1.47578
C         56.24534        30.85198        -1.12209
C         56.30035        33.82311        -0.87221
C         56.27657        35.17976        -0.75192
C         56.38052        38.06207        -0.20307
C         56.34075        39.41839        -0.30220
C         55.99501        42.23272        -1.30015
C         55.86049        43.52780        -1.66291
O         29.02393        38.84312         0.89323
O         53.85066        44.44675         1.24032
O         34.76889        35.89119        -1.75591
O         30.87749        26.93027         1.83218
O         38.20461        27.32522         2.48324
O         32.30510        35.42029         1.08684
O         44.12059        30.47713        -1.60560
O         35.76390        39.85808         1.71646
O         39.51198        50.31144         2.60317
O         47.18525        29.38463         1.76242
O         31.70722        39.37655        -2.30600
H         31.89037        40.27597        -2.65476
O         36.44037        42.47449         2.08261
H         36.24605        41.54589         2.37523
O         46.53998        38.11848         2.24186
H         47.35827        38.59237         2.50487
O         40.86935        26.79361        -0.93226
H         41.58109        26.51698        -1.54679
O         40.90410        27.47248         2.64566
H         40.14852        27.60395         3.25985
O         39.06393        24.93411         2.98367
H         38.45678        25.58764         3.40196
O         48.00111        26.98783         2.04094
H         47.56796        27.70990         2.55711
O         33.17734        44.54531        -2.51063
H         32.45764        45.09268        -2.89153
O         39.51039        30.73525        -1.46046
H         40.43557        31.09988        -1.59795
O         45.36957        44.70462        -1.74037
H         44.62085        45.26771        -2.03441
O         51.76187        29.67126         1.26279
H         51.74733        28.78448         1.67977
O         41.69860        33.87002         2.32623
H         40.99393        34.45375         2.67815
O         42.04791        31.75648        -1.44985
H         42.72611        31.26122        -2.01743
O         37.84335        46.08845        -1.64215
H         38.19928        45.23863        -2.00780
O         55.46193        32.90790         1.15119
H         55.46550        33.82350         1.50726
O         41.55090        43.75619        -1.91565
H         42.34589        43.23175        -2.15959
O         55.28216        37.13493         1.68634
H         55.33438        38.04095         2.06116
O         37.54578        48.41879         2.50664
H         38.26011        48.93244         2.95906
O         51.18147        30.74870        -2.18262
H         50.90432        31.61165        -2.55671
O         55.97354        41.99662         1.07707
H         55.83242        42.95312         1.24859
O         31.66485        30.56947        -2.12955
H         32.14232        31.31974        -2.54774
O         42.07487        31.20908         2.14793
H         41.45114        30.77273         2.76413
O         34.14632        33.51606        -2.29086
H         34.69716        34.24604        -2.66440
O         36.78494        30.63728        -1.85524
H         37.75420        30.55654        -2.04362
O         48.73106        33.93322        -1.99109
H         49.41029        34.56430        -2.31311
O         48.95372        46.68070         2.30617
H         49.87347        46.86208         2.59510
O         30.19832        29.42945         1.81152
H         30.58954        28.74436         2.40523
O         38.08839        44.64423         1.74973
H         37.59149        43.91969         2.20325
O         51.54366        43.77075         2.23882
H         52.50479        43.78118         2.46283
O         38.81268        43.66932        -1.75577
H         39.72068        43.55212        -2.13812
H         27.02753        26.75734        -0.47172
H         25.87641        28.82767        -1.11335
H         25.80140        31.28123        -1.29628
H         25.78638        33.22687        -1.28370
H         25.76849        35.65958        -1.24032
H         25.74053        37.57548        -0.97134
H         25.73648        39.98682        -1.02751
H         25.76083        41.90475        -1.30545
H         25.82436        44.35286        -1.55728
H         27.09485        46.47151        -1.59506
H         28.98240        25.58901         0.42777
H         29.21298        47.69533        -1.32343
H         32.84885        23.44512         0.07748
H         30.72164        24.61669         0.17222
H         32.73848        49.82024         0.01721
H         30.70304        48.59734        -0.51129
H         34.45848        22.51984         0.37040
H         34.43288        50.79862         0.19052
H         36.54535        21.32397         0.70219
H         36.53585        51.95963         0.59040
H         40.24314        19.17446         1.25520
H         38.11769        20.40710         1.38720
H         40.25025        54.08941         1.46237
H         38.10425        52.94688         1.20939
H         42.69895        19.14964         0.86107
H         42.67046        54.09007         1.57725
H         44.80317        20.35148         0.47615
H         44.82305        52.93281         1.30781
H         48.47649        22.54150        -0.24988
H         46.41214        21.30895         0.10006
H         48.57219        50.85485         0.72159
H         46.45702        52.04025         0.98989
H         49.94134        23.51916        -1.05924
H         50.12597        49.88411        -0.05120
H         52.01171        24.73167        -1.44004
H         52.22915        48.65259        -0.30130
H         55.75420        26.87194        -2.02914
H         53.63909        25.66100        -1.76251
H         55.50226        46.20218        -2.02486
H         53.60220        47.55607        -1.25450
H         57.08959        28.97228        -1.77482
H         57.22558        31.34826        -1.12917
H         57.21645        33.32527        -1.21865
H         57.16865        35.75712        -1.03352
H         57.35050        37.54806        -0.24291
H         57.27187        39.97796        -0.47321
H         56.74717        41.60267        -1.79796
H         56.49032        43.95009        -2.46137
