         314
 CSIRO Nanostructure Databank - Neutral Graphene Oxide Data Set
C         30.62943        56.89079        -0.63374
C         30.47081        58.26077        -1.08110
C         29.32131        59.07923        -0.69674
C         30.56349        61.15100        -1.08670
C         29.36000        60.44576        -0.81538
C         33.16947        52.75940        -0.10636
C         33.12835        54.13645        -0.42535
C         31.91799        54.83946        -0.40677
C         33.09073        56.93752        -1.02128
C         31.85053        56.22397        -0.72056
C         33.07010        58.30049        -1.25720
C         31.80630        59.02855        -1.42513
C         33.02173        61.18016        -1.16025
C         31.78604        60.49234        -1.24874
C         35.09692        48.29826         0.63768
C         35.01398        49.55531        -0.00505
C         34.19988        50.63183         0.32672
C         35.59188        52.64534        -0.50621
C         34.34032        51.98740        -0.16424
C         35.59457        54.08623        -0.63891
C         34.36884        54.82869        -0.68347
C         35.58874        56.94943        -0.99188
C         34.35763        56.22167        -0.92689
C         35.58525        58.37275        -1.11776
C         34.32675        59.05835        -1.54118
C         35.45574        61.22568        -1.00832
C         34.26291        60.52303        -1.20374
C         37.76366        44.27984         1.51580
C         37.78377        45.60375         1.15347
C         36.49232        46.28068         1.16764
C         38.18573        48.40775        -0.14257
C         36.18519        47.40914         0.43137
C         38.16125        49.80896        -0.35910
C         36.96559        50.52140        -0.64684
C         38.08565        52.65910        -0.35361
C         36.84997        51.92833        -0.52832
C         38.08306        54.11184        -0.63564
C         36.80967        54.83573        -0.72434
C         38.06887        57.01144        -0.74117
C         36.82569        56.24629        -0.82872
C         38.02908        58.46607        -0.81478
C         36.76405        59.12303        -0.98174
C         37.89391        61.31211        -0.74495
C         36.72000        60.57464        -0.94830
C         40.13389        40.18384         0.24760
C         40.17324        41.53347         0.69518
C         39.00858        42.13155         1.18929
C         40.24532        44.25261         1.76319
C         38.95921        43.45896         1.89378
C         40.19413        45.72238         1.59780
C         39.07718        46.34481         1.07476
C         40.36487        48.48060         0.95532
C         39.19773        47.74478         0.60738
C         40.58287        49.85767         0.49056
C         39.39249        50.57211        -0.18617
C         40.47909        52.77709         0.34976
C         39.29681        52.02852        -0.14703
C         40.48889        54.26369         0.27436
C         39.33799        54.90865        -0.42233
C         40.55741        57.06555        -0.36528
C         39.26014        56.37351        -0.42434
C         40.51074        58.60366        -0.60488
C         39.19569        59.23800        -0.69161
C         40.33828        61.42470        -0.37755
C         39.15860        60.67834        -0.60482
C         42.42725        36.09912        -1.16133
C         42.46396        37.51586        -1.02768
C         41.29237        38.18352        -0.60822
C         42.49052        40.31837        -0.43783
C         41.29027        39.55146        -0.24516
C         42.53593        41.70938        -0.07077
C         41.42398        42.25904         0.59367
C         42.59914        44.50236         0.73900
C         41.49278        43.61274         1.17433
C         42.66897        45.80619         1.17258
C         41.49164        46.42367         1.96525
C         42.46775        48.70951         2.15668
C         41.40498        47.91724         1.73759
C         42.67974        50.07814         1.77309
C         41.68875        50.67043         1.01496
C         42.78503        52.93246         1.28860
C         41.82642        52.07562         0.47508
C         42.85972        54.37975         0.99587
C         41.73905        55.04145         0.49767
C         42.82834        57.27196         0.77746
C         41.69508        56.44681         0.32543
C         42.84695        58.71501         0.32387
C         41.66125        59.39554        -0.23040
C         42.77979        61.55366         0.23162
C         41.60688        60.80981        -0.14844
C         44.77244        33.21163        -0.92334
C         43.66408        33.93357        -1.35485
C         44.76949        36.13880        -1.66989
C         43.59439        35.37214        -1.43910
C         44.90616        37.52009        -1.45353
C         43.69086        38.26334        -1.20702
C         44.68202        40.55326        -1.40751
C         43.62017        39.68595        -1.02114
C         44.87148        41.87514        -0.99209
C         43.71119        42.53569        -0.37507
C         44.61319        44.84323        -0.60306
C         43.62656        43.91446        -0.10747
C         44.93712        46.01092         0.02465
C         43.80421        46.71167         0.72573
C         45.29288        48.60914         1.29939
C         44.32841        47.73824         1.70412
C         45.32297        50.01943         1.78989
C         43.99659        50.75488         1.99451
C         45.28443        53.01246         1.80971
C         43.99779        52.25695         1.86761
C         45.24562        54.41409         1.88058
C         43.92504        55.16144         1.72948
C         45.25702        57.25623         1.44694
C         44.08458        56.58469         1.21383
C         45.35290        58.72805         1.74115
C         44.08183        59.49831        -0.04888
C         45.23547        61.55805         0.77412
C         44.04562        60.93829         0.37170
C         46.02715        33.73329        -0.53002
C         47.34322        35.90681        -0.33993
C         46.46269        35.00805        -0.94659
C         47.37611        37.30285        -0.67364
C         46.27170        38.02997        -1.27873
C         47.51158        40.17342        -0.91714
C         46.48319        39.40076        -1.49448
C         47.42462        41.59365        -0.81623
C         46.25308        42.37204        -1.01825
C         47.50853        44.54273        -0.68858
C         46.44717        43.79548        -1.11532
C         47.48560        46.04608        -0.65924
C         46.17764        46.77969        -0.31835
C         47.62905        48.78224         0.48639
C         46.29947        48.15056         0.29406
C         47.65921        50.12808         0.91229
C         46.46546        50.85691         1.34842
C         47.64763        52.84663         0.61705
C         46.44674        52.24810         1.38708
C         47.79293        54.35250         0.35821
C         46.42703        55.21383         2.12174
C         47.75608        57.25057         1.34918
C         46.51529        56.56190         1.70363
C         47.74730        58.71517         1.15314
C         46.54678        59.44885         1.24032
C         47.71214        61.55047         0.86438
C         46.48891        60.85354         0.96826
C         48.54086        38.03272        -0.32076
C         49.86219        40.13474        -0.17241
C         48.65302        39.43690        -0.42389
C         49.91333        41.54495        -0.21041
C         48.62267        42.28042        -0.26787
C         49.98263        44.46765        -0.15001
C         48.67051        43.79390        -0.17092
C         50.02823        45.87020        -0.11378
C         48.79607        46.69961        -0.27935
C         50.07239        48.67872         0.60906
C         48.83208        48.07428         0.29174
C         50.12009        50.05959         0.92037
C         48.91079        50.76494         1.01391
C         50.16674        52.95574         1.38931
C         48.88443        52.21896         1.23014
C         50.14941        54.42119         1.16637
C         48.96927        55.09017         0.93474
C         50.19881        57.22795         0.72462
C         48.91769        56.54200         1.03481
C         50.20332        58.74019         0.63941
C         48.93689        59.43601         0.88404
C         50.20689        61.54289         0.74899
C         48.93891        60.85524         0.84957
C         51.11156        42.25922        -0.09746
C         52.42407        44.36770        -0.10760
C         51.18146        43.69213        -0.09735
C         52.48317        45.77086         0.00270
C         51.26638        46.50706         0.09785
C         52.68017        48.58455         0.75258
C         51.32179        47.88659         0.60046
C         52.61120        50.06689         0.94462
C         51.38641        50.77196         1.04980
C         52.63344        52.89414         1.15925
C         51.42248        52.18076         1.26531
C         52.68509        54.35248         1.43035
C         51.40957        55.15271         1.42841
C         52.66860        57.28773         1.03006
C         51.47477        56.58628         1.07375
C         52.68133        58.72605         0.82285
C         51.47632        59.45048         0.78623
C         52.70803        61.67325         0.77622
C         51.41945        60.88547         0.76416
C         53.71018        46.51070        -0.13363
C         54.97949        48.54965        -0.48881
C         53.83340        47.88125         0.08420
C         55.44977        49.79041        -0.04326
C         53.78914        50.81604         1.03465
C         54.95556        52.93464         0.16424
C         53.84083        52.20987         0.91948
C         55.20805        54.32522         0.75906
C         54.00184        55.06830         1.27908
C         55.22962        57.29476         0.80812
C         53.96869        56.58092         1.24854
C         55.13508        58.71702         0.39921
C         53.93009        59.42896         0.58739
C         55.05630        61.50080        -0.04052
C         53.91953        60.85082         0.39847
C         56.25577        50.77361        -0.64189
C         57.33811        52.94402        -0.55490
C         56.25424        52.14885        -0.21722
C         57.40965        54.37584        -0.40106
C         56.34023        55.10334         0.21466
C         57.51438        57.20670        -0.19121
C         56.38829        56.50846         0.30194
C         57.51998        58.65025        -0.28449
C         56.29772        59.37643        -0.06138
C         57.39864        61.42757        -0.83681
C         56.26026        60.78567        -0.31552
C         58.54179        55.06355        -0.85130
C         59.81519        57.15453        -1.07636
C         58.64376        56.47867        -0.72365
C         59.99292        58.61055        -0.78031
C         58.66580        59.32676        -0.71968
C         59.68849        61.32338        -1.74601
C         58.59532        60.71514        -1.07115
C         60.93894        59.23915        -1.75864
C         60.78656        60.54207        -2.16560
O         52.04409        54.74576         2.68949
O         54.43737        53.13049        -1.11540
O         48.29622        46.68826        -1.68104
O         49.28663        52.62864         2.56527
O         40.86438        57.65753        -1.68076
O         39.02748        54.37628        -1.75604
O         44.87507        59.06861        -0.87438
O         45.88646        35.46797        -2.16129
O         50.19386        57.89233        -0.58066
O         37.09028        47.70370        -0.61591
O         55.00200        54.50971         2.19144
O         43.52859        48.06952         2.81290
O         44.61204        59.24745         2.57048
O         42.90811        52.74058         2.74406
O         48.36221        42.97989         1.01725
O         45.58872        40.05779        -2.35385
O         45.36783        44.45646        -1.70953
O         40.49982        50.03462        -0.99158
O         35.88666        49.77678        -1.09514
O         42.46979        58.37909         1.70650
O         40.09643        53.57692         1.52549
O         44.80158        50.29979         3.11796
O         45.87835        47.98840        -1.11509
O         54.99029        50.13965         1.23618
O         41.27639        43.70365         2.64993
O         52.07725        47.88833         1.87717
O         30.93812        58.50860        -2.45047
O         47.11322        54.85283        -0.52902
O         54.86891        57.16042         2.23419
O         34.40895        59.10444        -3.11370
O         47.55504        52.30372        -0.72515
H         47.05415        52.96013        -1.26355
O         47.43881        54.67485         2.84820
H         47.23862        53.75694         3.12850
O         43.20197        47.54973        -0.34322
H         43.94759        47.85756        -0.92087
O         52.91928        62.21366         2.09899
H         53.04397        61.46493         2.71821
O         42.41393        51.99600        -0.84716
H         41.88565        51.33140        -1.35548
O         43.39078        55.37015         3.07815
H         43.03884        54.49621         3.38117
O         38.78940        43.13108         3.31408
H         39.68816        42.92011         3.65569
O         60.61815        58.71987         0.56747
H         59.96433        58.38838         1.21952
O         34.47790        57.75483        -3.58563
H         35.43890        57.62417        -3.77652
O         41.71642        46.22531         3.37670
H         41.75354        45.25141         3.53317
H         29.76596        56.37489        -0.18669
H         28.42575        58.57827        -0.30131
H         30.55704        62.24864        -1.02204
H         28.46032        61.03106        -0.57714
H         32.22968        52.26657         0.18424
H         30.98708        54.30122        -0.17376
H         33.00768        62.27028        -1.00549
H         34.40376        48.08498         1.46327
H         33.35016        50.44758         1.00162
H         35.41338        62.31216        -0.83742
H         36.78753        43.79530         1.66813
H         35.72722        45.86678         1.84166
H         37.83380        62.40849        -0.68011
H         39.19569        39.61653         0.33128
H         38.08998        41.52620         1.22114
H         40.26110        62.52052        -0.31934
H         41.48531        35.57120        -0.95224
H         40.36638        37.60136        -0.48799
H         42.67463        62.62985         0.43885
H         44.59695        32.14638        -0.70215
H         42.71002        33.38890        -1.42822
H         45.25129        62.65534         0.88116
H         46.63567        33.15703         0.18189
H         48.02336        35.54883         0.44704
H         47.70899        62.64341         0.73940
H         49.40079        37.47129         0.07374
H         50.78154        39.56475         0.02861
H         50.19634        62.64246         0.70606
H         52.05480        41.69639        -0.02564
H         53.35590        43.78613        -0.16107
H         52.61924        62.55434         0.09092
H         54.58364        45.96509        -0.52304
H         55.48128        48.05238        -1.33370
H         55.04121        62.59162        -0.18252
H         56.80911        50.52283        -1.56222
H         58.25413        52.44947        -0.92053
H         57.34655        62.49704        -1.09200
H         59.37799        54.50515        -1.29748
H         60.66562        56.58350        -1.47893
H         59.62194        62.38146        -2.03568
H         61.79915        58.64807        -2.10590
H         61.53900        60.99733        -2.82639
