         300
 CSIRO Nanostructure Databank - Neutral Graphene Oxide Data Set
C         30.51415        31.94020        -1.16150
C         30.53211        33.17590        -1.06722
C         30.40421        36.21832        -0.36785
C         30.33920        37.21147         0.36084
C         30.19409        40.19299         0.45492
C         30.24962        41.45377         0.34890
C         32.99402        29.15752        -1.79232
C         31.89613        29.69542        -1.58056
C         32.95184        31.85090        -1.20336
C         31.66171        31.03407        -1.03166
C         32.92134        33.35983        -1.29787
C         31.61945        34.13368        -1.31695
C         32.64133        35.76926         0.32819
C         31.66638        35.60388        -0.92943
C         32.68675        37.22881         0.87707
C         31.37264        37.97223         1.07207
C         32.59934        40.19118         0.61770
C         31.32466        39.48412         1.24331
C         32.57206        41.70056         0.87137
C         31.28087        42.39936         0.38911
C         32.52670        44.50128         0.51128
C         31.50005        43.76965         0.29804
C         35.70146        27.61650        -1.89453
C         35.58874        29.05964        -2.18916
C         34.27652        29.78171        -2.15674
C         35.48803        31.97474        -1.38147
C         34.23807        31.25361        -1.75288
C         35.39238        33.30571        -0.89082
C         34.16785        34.00422        -0.82080
C         35.28732        35.86752         0.55085
C         34.04392        35.18225         0.07020
C         35.20771        37.29433         1.04585
C         33.96206        38.02728         0.58291
C         35.18373        40.26222         1.26456
C         33.90079        39.49708         1.03235
C         35.23371        41.81816         1.36233
C         33.86651        42.47879         0.94881
C         35.06242        44.41543        -0.34210
C         33.82692        43.83113         0.22952
C         35.36716        45.85201        -0.43925
C         37.86826        27.53228        -0.75193
C         36.59699        27.08673        -1.22139
C         38.12478        28.94616        -1.34904
C         36.86772        29.76377        -1.71894
C         37.83324        31.70932        -0.31666
C         36.68206        31.11861        -1.07868
C         37.87559        33.20659        -0.29641
C         36.66360        34.05266        -0.58090
C         37.81512        35.83447         0.90874
C         36.64596        35.47077         0.01043
C         37.68370        37.30151         0.56691
C         36.49146        38.04110         1.13998
C         37.60307        40.24596         0.33607
C         36.57335        39.56755         1.30133
C         37.83832        41.74138         0.77113
C         36.48823        42.49172         0.75545
C         37.56227        44.14519        -0.93022
C         36.38662        43.72855        -0.07854
C         37.59062        47.06520         0.24824
C         36.34186        46.54157        -0.10674
C         39.83857        24.78481         0.76418
C         38.93220        25.52836         0.36282
C         40.22921        27.49989         0.11050
C         38.85492        26.88916        -0.07163
C         40.40669        28.80102        -0.67562
C         39.17562        29.66300        -0.55550
C         40.33421        31.49992         0.54956
C         39.12290        30.95399        -0.18468
C         40.35531        33.03078         0.53269
C         39.12338        33.83143         0.23737
C         40.27484        35.99192         0.73310
C         39.01603        35.22584         0.71142
C         40.18835        37.47297         1.07906
C         38.93429        38.12662         0.48683
C         40.12143        40.19990        -0.28585
C         38.91295        39.48016         0.33493
C         40.30282        41.71928         0.09400
C         38.98037        42.46283         0.03360
C         40.13945        44.61515        -0.85411
C         38.90708        43.73891        -0.45580
C         40.15984        46.02351        -0.12197
C         38.73698        47.24513        -0.66842
C         40.38233        48.98662         0.28579
C         39.42147        48.47457        -0.29565
C         42.37906        24.55227         1.33920
C         41.27471        25.03281         0.38978
C         42.83758        27.19471         0.02563
C         41.42908        26.62054         0.34660
C         42.88248        28.71190         0.26995
C         41.81818        29.49830        -0.53049
C         42.81885        31.62269         0.66994
C         41.66346        31.03935        -0.17419
C         42.86299        33.15601         0.66803
C         41.52618        33.73189         1.22633
C         42.76784        36.01493         1.34371
C         41.54113        35.23991         0.95397
C         42.75116        37.35812         0.63955
C         41.49906        38.18940         0.69635
C         42.69846        40.08161        -0.69603
C         41.47267        39.51975         0.01154
C         42.66787        41.56884        -0.95804
C         41.30881        42.36644        -0.92361
C         42.59740        44.37823        -0.13958
C         41.42795        43.83212        -0.52907
C         42.71887        45.85611         0.04988
C         41.53366        46.73121        -0.20428
C         42.82737        48.46797         1.06134
C         41.76916        48.55188         0.03600
C         43.46764        25.19672         1.19878
C         45.20706        27.07880         1.11854
C         43.92083        26.44265         0.82901
C         45.24822        28.60130         1.16360
C         43.99603        29.33399         0.76534
C         45.34397        31.44507         1.52681
C         44.01298        30.80772         1.05314
C         45.32386        33.00205         1.50587
C         44.04371        33.76308         1.41789
C         45.36189        36.03592         1.29182
C         44.06096        35.27285         1.43484
C         45.29280        37.44152         0.75069
C         44.01988        37.98128         0.15450
C         45.29244        40.17519        -0.57640
C         44.03719        39.27662        -0.70427
C         45.28106        41.65920        -0.78762
C         43.95124        42.40146        -1.07012
C         45.09372        44.56995        -0.55342
C         43.92009        43.61343        -0.12201
C         45.21639        45.68049         0.47850
C         43.90487        46.25255         0.96375
C         43.81176        47.72681         1.16480
C         47.50946        27.17791         0.33231
C         46.52128        26.54469         0.72092
C         47.86383        28.58307         0.52293
C         46.56636        29.32568         0.99220
C         47.70681        31.49126         0.64241
C         46.55501        30.80993         0.87501
C         47.76732        32.98365         0.71723
C         46.55554        33.76763         1.08933
C         47.79082        35.88675         0.72035
C         46.65246        35.27262         1.16690
C         47.77280        37.30208         0.13849
C         46.57033        38.17008         0.46611
C         47.86667        40.21143        -0.53303
C         46.56014        39.57648        -0.03074
C         47.80070        41.74181        -0.36300
C         46.53473        42.46159        -0.48555
C         47.53765        44.66752        -1.15121
C         46.43212        43.84740        -0.67917
C         47.43927        46.46120         1.63207
C         46.38274        46.06199         1.05032
C         49.97803        28.94376        -0.88818
C         48.84277        29.36642        -0.22839
C         50.23285        31.41314         0.35598
C         48.85386        30.88525        -0.13769
C         50.34606        32.85853         0.73190
C         49.08852        33.69679         1.04762
C         50.35716        35.96621         0.81859
C         49.07931        35.10778         0.40055
C         50.29080        37.30568         0.11705
C         49.07442        38.07887         0.37135
C         50.41931        40.23149        -0.00005
C         49.07893        39.56082         0.18187
C         50.35044        41.71821        -0.09638
C         48.99525        42.36133        -0.01359
C         50.09850        44.41707        -1.42347
C         48.83653        44.40444        -0.75996
C         51.02737        29.57735        -1.30214
C         52.46436        31.64102        -0.66036
C         51.71520        30.42860        -0.29852
C         52.59539        32.78553        -0.21413
C         51.64812        33.63367         0.52427
C         52.55384        35.93610        -0.29360
C         51.66493        35.12604         0.53686
C         52.36642        36.94583        -0.97070
C         51.25002        37.94467        -0.90785
C         52.37448        40.24028        -1.38024
C         51.66212        39.34652        -0.39637
C         52.35503        41.45565        -1.56715
C         51.78833        42.61822        -0.84753
C         51.13208        43.75235        -1.49164
O         34.34539        39.75115         2.37103
O         48.96583        43.67386         0.47268
O         43.30785        35.74675         2.64072
O         38.89965        28.68958        -2.58053
O         41.13666        35.66494        -0.38539
O         42.92092        31.09862         2.01665
O         42.42816        29.46854        -1.85392
O         44.56915        33.35960         2.71207
O         37.63015        33.79756        -1.62646
O         46.62318        39.30514         1.38768
O         50.43064        31.74373         1.72202
O         36.69680        43.81391         1.34371
O         40.81029        27.36134         1.43045
O         45.30653        37.17644         2.19063
O         41.71985        39.41798         1.44556
O         45.57463        40.75582        -1.90536
O         35.84183        37.46555         2.33018
O         37.38147        44.72193        -1.99844
O         42.51092        40.59762        -2.04303
O         43.28840        37.01918        -0.67353
O         37.09829        36.70744        -0.77971
O         39.96367        37.53621         2.45098
O         50.78687        41.10683         1.14182
O         42.46924        46.49267        -1.26854
O         32.51759        31.33055         0.09228
O         32.98429        42.31323         2.10741
O         49.00413        38.99219         1.51660
O         36.51798        29.61687        -3.12446
O         46.91504        33.50049        -0.35723
O         32.32601        33.87043        -2.55906
O         34.67492        34.88186         1.41048
O         34.14994        43.72088        -1.20212
O         36.76570        31.04191         0.42179
O         32.04686        37.33672         2.18113
O         45.19401        27.78267         2.38338
O         40.16358        33.57320        -0.78712
O         47.64405        28.94124         1.90361
O         40.76167        42.34991        -2.21357
O         34.13521        30.81281        -3.15506
O         52.14024        34.37782         1.66359
O         32.53093        40.04461        -0.81766
H         31.61799        40.25619        -1.12077
O         49.18519        34.91214        -1.02693
H         48.44699        34.30727        -1.29246
O         49.08046        33.86905         2.48103
H         49.40057        33.02790         2.88389
O         43.07493        33.64439        -0.66354
H         42.20477        33.80443        -1.10352
O         38.33458        41.82440         2.11921
H         37.68757        41.38319         2.72705
O         50.57553        38.11485        -2.13812
H         50.38224        37.24171        -2.53610
O         41.53466        24.53523        -0.88351
H         41.43733        23.56136        -0.89156
O         31.25889        39.81899         2.59643
H         30.87944        39.07671         3.11050
O         48.09063        39.89021        -1.91480
H         47.28322        40.16110        -2.41428
O         44.18099        43.07990         1.18011
H         43.92816        43.75231         1.85827
O         42.22862        49.03801        -1.15391
H         42.85097        48.38316        -1.54974
O         52.45963        39.15883         0.74479
H         52.32313        39.92403         1.34906
O         40.26261        28.33364        -2.09482
H         41.69815        29.35014        -2.51508
O         32.13591        36.37066        -2.00658
H         32.22180        35.78708        -2.79659
O         40.25741        31.00249         1.87881
H         40.86422        31.51712         2.46107
O         32.03886        34.92825         1.30945
H         32.63085        34.89775         2.09296
O         41.61451        31.70756        -1.43219
H         42.37561        31.40899        -1.97755
O         37.02917        40.27528        -0.98221
H         37.76919        40.13224        -1.62499
O         35.39901        42.09057         2.76021
H         34.62828        41.69231         3.22693
O         50.27842        36.24642         2.20783
H         50.09394        35.40886         2.69647
O         44.72312        45.24741        -1.77573
H         44.31501        44.56996        -2.37765
O         44.16632        38.72924        -2.03127
H         43.93778        39.44466        -2.66721
O         39.77829        40.08045        -1.67375
H         40.25026        40.80630        -2.19688
O         43.98771        42.86249        -2.43695
H         43.52833        42.18734        -2.98645
O         52.25967        29.73391         0.73575
H         52.83996        30.30856         1.27389
O         47.30839        45.63111        -2.07616
H         46.33288        45.69960        -2.24329
O         39.88670        45.80468         1.22380
H         40.28688        46.50075         1.78490
O         41.44817        33.49506         2.63380
H         42.11849        34.06197         3.08727
O         40.89087        41.85447         1.38175
H         40.18813        41.68500         2.05738
O         43.65066        45.58604         2.22000
H         44.34664        45.86308         2.85604
O         40.12942        44.83718        -2.24828
H         40.32935        43.94057        -2.65491
O         52.58190        43.02379         0.19770
H         52.88391        42.24528         0.70857
O         47.64427        37.10920        -1.29051
H         48.29253        36.41887        -1.57361
O         38.49044        47.14671        -2.01513
H         38.14755        46.24879        -2.25975
O         45.49037        31.05137         2.90185
H         44.72620        31.42511         3.39713
O         34.13949        37.97680        -0.84964
H         33.47122        38.56227        -1.28278
O         37.04874        39.73960         2.64783
H         36.52034        39.13201         3.21621
O         48.72885        31.44582        -1.47119
H         49.30478        30.91393        -2.06714
O         43.15230        26.93576        -1.35360
H         43.03563        27.77396        -1.86744
O         37.81622        47.34764         1.53026
H         37.03798        47.13740         2.08679
