         260
 CSIRO Nanostructure Databank - Neutral Graphene Oxide Data Set
C         30.41251        31.51089        -0.27567
C         30.50787        32.82038        -0.17230
C         30.36990        36.02312         0.12625
C         30.35433        37.22238         0.41950
C         30.34771        40.37979         0.80385
C         30.26108        41.66527         0.74259
C         32.92405        28.98457        -1.46157
C         31.86392        29.47441        -0.99422
C         32.82170        31.72723        -0.93862
C         31.50338        30.80154        -0.69285
C         32.84670        32.90058         0.05504
C         31.49741        33.71685        -0.07988
C         32.69022        35.72869         0.84555
C         31.57151        35.20371        -0.22411
C         32.67448        37.24293         1.21960
C         31.37104        38.04252         1.07716
C         32.63613        40.28281         1.26506
C         31.38647        39.51186         0.97095
C         32.63306        41.81718         1.20377
C         31.30606        42.53693         0.88841
C         32.63955        44.50502         0.86784
C         31.52853        43.93983         0.81474
C         35.67049        27.58717        -1.94726
C         35.43075        29.06724        -2.09141
C         34.20888        29.65588        -1.43539
C         35.35104        31.86658        -1.18283
C         34.14422        30.97359        -1.04921
C         35.31461        33.14627        -0.35429
C         34.07232        33.77508        -0.10448
C         35.28054        35.93410         0.58024
C         34.00259        35.20593         0.27938
C         35.30847        37.21398         1.40436
C         33.98760        38.02289         1.37157
C         35.18765        40.25949         0.76102
C         33.95651        39.53251         1.25715
C         35.18666        41.80928         0.55423
C         33.92220        42.53846         1.01327
C         35.17690        44.64387         0.65028
C         33.96025        43.93178         0.87893
C         35.30685        46.02221         0.32056
C         38.07540        27.56978        -2.08252
C         36.73164        26.98077        -2.12632
C         37.95024        28.99802        -1.57540
C         36.76560        29.68056        -1.58004
C         37.84791        31.69629        -0.57388
C         36.71959        31.18536        -1.37839
C         37.77559        32.92639         0.28378
C         36.51908        33.74819         0.04579
C         37.80704        35.88421         0.80071
C         36.52055        35.10153         0.63322
C         37.75217        37.37662         0.89861
C         36.57026        38.03370         1.08465
C         37.74348        40.31832         0.98083
C         36.48834        39.51014         0.81260
C         37.72624        41.77752         0.71144
C         36.46146        42.52574         1.09765
C         37.60068        44.64784         0.14114
C         36.45534        43.98946         0.60112
C         37.53676        46.09357        -0.58123
C         36.30339        46.70336         0.01602
C         40.65380        24.79036        -1.96725
C         39.58606        25.39899        -2.17975
C         40.66018        27.48747        -1.50981
C         39.39735        26.85795        -2.14809
C         40.51288        28.90423        -1.03895
C         39.24376        29.69594        -1.31210
C         40.34902        31.72417        -0.14314
C         39.16270        31.11577        -0.78449
C         40.33609        33.09436         0.05247
C         39.01631        33.77310        -0.04041
C         40.31004        35.98606         0.08142
C         39.00668        35.24173         0.17566
C         40.25982        37.46085         0.25810
C         39.11117        38.04768         1.08340
C         40.32454        40.34696         0.95502
C         39.03654        39.57816         1.13101
C         40.28562        41.82125         0.71532
C         38.95798        42.52545         0.80477
C         40.11510        44.61717        -0.30170
C         38.91223        44.04667         0.38605
C         40.05827        46.07597        -0.71754
C         38.83349        46.81767        -0.35134
C         40.20592        48.83609        -0.10157
C         39.12784        48.15832        -0.13384
C         43.08600        24.64878        -0.97310
C         41.85033        25.22274        -1.34901
C         42.72239        27.18167        -0.09299
C         41.75501        26.62095        -0.91584
C         42.65587        28.59626         0.36780
C         41.41310        29.39455         0.06803
C         42.63546        31.53515         0.95567
C         41.42165        30.85644         0.37751
C         42.64461        33.03353         0.94288
C         41.49836        33.82401         0.44836
C         42.73486        35.95137         0.75018
C         41.57489        35.24476         0.38475
C         42.85636        37.39751         0.42820
C         41.57809        38.18176         0.27239
C         42.83114        40.39294         0.80715
C         41.56735        39.64319         0.50345
C         42.81624        41.74772         0.15999
C         41.47436        42.45219         0.02781
C         42.75078        44.72211        -0.19866
C         41.45104        43.89722        -0.34221
C         42.67342        46.05939        -0.95916
C         41.36020        46.77921        -1.07924
C         42.69129        48.86439        -0.75855
C         41.27640        48.65128        -1.11123
C         43.91071        25.06867        -0.13308
C         45.11210        27.12782         0.66408
C         43.81980        26.36281         0.64608
C         45.18385        28.61848         0.19381
C         43.93199        29.32849         0.71448
C         45.16386        31.55581         0.35509
C         44.00943        30.82462         1.09097
C         45.22370        33.05567         0.73249
C         43.95129        33.73716         1.17109
C         45.23697        35.97680         1.45789
C         43.93539        35.23484         1.25363
C         45.32040        37.46260         1.24735
C         44.11619        38.16256         0.70186
C         45.43611        40.38234         0.68253
C         44.11888        39.65687         0.91371
C         45.41093        41.81541         0.21757
C         44.09150        42.46030        -0.15296
C         45.23397        44.54482        -0.77636
C         44.06367        43.93412        -0.44002
C         45.26519        46.04987        -0.99869
C         43.99855        46.81903        -1.04361
C         43.75548        48.24670        -0.79185
C         47.50278        27.16975         1.32427
C         46.39293        26.70022         0.89195
C         47.80087        28.55965         0.97082
C         46.50408        29.36286         0.51689
C         47.58993        31.49735         1.18837
C         46.46890        30.83207         0.69319
C         47.80919        32.98755         1.00596
C         46.51808        33.78189         0.95106
C         47.79649        35.93928         1.63188
C         46.50960        35.16488         1.55193
C         47.71383        37.43035         1.53065
C         46.63686        38.14961         1.10425
C         47.92534        40.32369         0.10689
C         46.63470        39.48491         0.30937
C         47.73479        41.62833        -0.62042
C         46.59320        42.35799        -0.50164
C         47.83504        44.45186        -1.04661
C         46.47611        43.72356        -1.15141
C         47.60046        45.83385        -0.87841
C         46.61954        46.57562        -0.67453
C         50.13438        28.99712         2.09074
C         48.81799        29.35307         1.67564
C         50.56733        31.88151         1.97553
C         48.60518        30.72427         1.82487
C         50.47557        33.14574         1.43998
C         49.12576        33.75438         1.14736
C         50.31820        35.93775         0.52187
C         49.11980        35.28284         1.23420
C         50.28472        37.31717        -0.09937
C         49.50586        38.28311         0.46290
C         50.23295        40.03437        -1.10818
C         49.27114        39.63020        -0.07036
C         50.14667        41.42084        -1.62775
C         48.89634        42.22517        -1.35978
C         50.31277        44.13241        -1.57864
C         48.97629        43.73681        -1.32700
C         51.23987        29.59892         1.97350
C         52.66993        31.57192         0.97963
C         51.64238        30.91330         1.73054
C         52.56475        32.67344         0.39122
C         51.74539        33.85064         0.89705
C         51.97100        35.54186        -1.09008
C         51.36913        34.97220        -0.02934
C         51.97991        36.69912        -1.67621
C         51.19974        37.73412        -1.17889
C         52.20197        39.84164        -2.32707
C         51.22087        39.13818        -1.54307
C         52.35515        41.09098        -2.44059
C         51.44931        42.09457        -2.06345
C         51.31897        43.48650        -1.99367
O         39.75213        45.00415        -1.66863
O         35.41276        32.35684        -2.60229
O         34.66753        36.08027        -0.71448
O         48.96799        40.53583         1.08384
O         43.85161        34.37954         2.47135
O         43.82587        37.73179        -0.66763
O         36.75648        31.79254        -2.78601
O         46.34758        43.51739        -2.63544
O         39.46432        30.79002        -2.23167
O         41.32128        42.86966        -1.35942
O         32.55166        41.09876         2.48052
O         50.25364        35.81915         1.96698
O         43.41719        40.15046         2.10370
O         47.57266        28.93724        -0.40665
O         38.32371        39.99073         2.33756
O         42.28580        32.25178         2.16552
O         47.21396        35.29141         2.81169
O         35.75284        39.65438        -0.45676
O         41.22695        28.58751        -2.27252
O         39.06324        43.63679         1.78000
O         48.63523        33.29624        -0.17084
O         43.16331        28.66486         1.74461
O         49.09974        41.60967        -2.67076
O         45.10377        36.90795         2.57794
O         34.05935        38.87854         2.55698
O         48.94173        38.05298         1.71343
O         40.64842        41.27651         2.02626
O         37.24342        35.15856         1.92894
O         41.95646        46.14942        -2.22529
O         31.79015        37.48638         2.35835
O         45.87510        33.79892        -0.36407
O         43.43357        41.63986        -1.16974
O         41.57488        39.13457        -0.85244
O         40.75709        29.83711         1.27689
O         40.12629        36.89829        -1.06910
O         38.87012        27.51208        -3.30241
O         38.73456        34.65451        -1.15584
O         45.66084        41.47058         1.61691
O         44.72331        46.48721        -2.26131
O         49.45923        31.42295         2.70224
O         35.15959        42.03886        -0.87233
H         35.54220        41.24696        -1.32065
O         32.02217        35.52748        -1.52205
H         31.81362        34.79833        -2.14296
O         44.40800        30.86642         2.46536
H         43.64417        30.58622         3.01634
O         45.05145        28.60256        -1.23425
H         45.95112        28.50896        -1.62179
O         39.50887        37.64910         2.42566
H         39.00440        38.21063         3.05997
O         36.36458        42.57496         2.53634
H         37.23773        42.86511         2.88322
O         45.43884        42.41494        -2.83196
H         44.63547        42.84065        -3.22125
O         37.29482        45.90920        -1.96632
H         38.13662        45.63578        -2.39946
O         43.42844        26.06968         1.97718
H         42.58049        25.58082         1.97377
O         32.59685        32.31278        -2.22805
H         32.80836        31.65307        -2.92279
O         52.47921        34.43475         1.96499
H         52.65348        33.75950         2.65244
O         35.30822        29.38791        -3.46728
H         36.10018        29.06627        -3.94748
O         42.78028        45.13838         1.19315
H         42.93905        44.36492         1.77490
O         37.79710        32.51709         1.67384
H         37.72221        33.32900         2.23107
O         44.88422        31.46908        -1.04432
H         45.47119        32.10931        -1.50743
O         32.45255        35.00499         2.06080
H         31.89805        35.58282         2.64013
O         40.93381        49.07454        -2.36125
H         41.71422        49.07442        -2.95098
O         46.40110        39.05191        -1.05934
H         45.49517        38.68145        -1.16991
O         32.90592        32.35691         1.37864
H         32.80093        33.10505         2.01471
O         35.43928        36.77618         2.76941
H         35.21947        37.53833         3.35241
