         630
 CSIRO Nanostructure Databank - Neutral Graphene Oxide Data Set
C         23.33985        27.69625        -2.83748
C         23.34441        29.07090        -2.74457
C         23.39978        31.99871        -2.62020
C         23.40468        33.36465        -2.48570
C         23.38169        36.25471        -2.08814
C         23.36017        37.61002        -1.87131
C         23.37042        40.51895        -1.55553
C         23.30257        41.85322        -1.32305
C         23.20548        44.77335        -0.70161
C         23.16550        46.13494        -0.49001
C         25.67661        24.77114        -2.69020
C         24.54389        25.51175        -2.77915
C         25.74128        27.65052        -2.44916
C         24.55047        26.96048        -2.72101
C         25.74406        29.06243        -2.23251
C         24.53587        29.79031        -2.44616
C         25.74974        31.88940        -1.93297
C         24.55914        31.22286        -2.33500
C         25.74586        33.31005        -1.76252
C         24.56273        34.05772        -2.03407
C         25.71409        36.13581        -1.34419
C         24.54850        35.47853        -1.83082
C         25.68789        37.55209        -1.11501
C         24.50703        38.29623        -1.37746
C         25.59094        40.32202        -0.50170
C         24.47676        39.70567        -1.10256
C         25.48916        41.70455        -0.00630
C         24.24474        42.50850        -0.41123
C         25.43092        44.55962         0.32540
C         24.32056        43.97926        -0.30363
C         25.32961        45.97272         0.69706
C         24.22338        46.78745         0.19285
C         25.43513        48.84762         0.70719
C         24.25390        48.17791         0.37219
C         28.25387        23.27103        -2.32743
C         28.23705        24.67812        -2.33712
C         27.00491        25.40800        -2.71133
C         28.23623        27.55818        -2.00409
C         27.02045        26.93249        -2.52823
C         28.11455        28.91686        -1.36009
C         26.92992        29.73761        -1.81724
C         28.10626        31.83126        -1.14508
C         26.93975        31.13193        -1.63983
C         28.09426        33.20316        -0.98662
C         26.91892        33.97930        -1.28811
C         28.09037        36.07519        -0.64515
C         26.89797        35.38242        -1.07615
C         28.06682        37.48862        -0.45740
C         26.85632        38.22505        -0.63498
C         27.96937        40.28203         0.21294
C         26.80772        39.61067        -0.31634
C         27.93124        41.71226         0.50547
C         26.71557        42.44075         0.35762
C         27.87737        44.55054         0.90145
C         26.66020        43.83710         0.58292
C         27.90721        45.96992         1.02406
C         26.65085        46.73038         1.06986
C         27.92472        48.85314         0.90054
C         26.65593        48.17612         0.87870
C         27.98879        50.25734         0.73917
C         30.64281        23.26817        -1.84590
C         29.43483        22.58425        -2.11124
C         30.64183        24.68610        -1.78065
C         29.43163        25.39150        -2.06738
C         30.69783        27.55426        -1.81262
C         29.40755        26.83756        -1.94033
C         30.66658        29.06776        -1.56825
C         29.38783        29.69996        -1.31623
C         30.61262        31.82657        -0.80115
C         29.32144        31.04578        -0.65608
C         30.58656        33.18295        -0.69436
C         29.28613        33.86777        -0.32660
C         30.49128        36.07799        -0.23077
C         29.30057        35.37124        -0.46828
C         30.47285        37.46337         0.06487
C         29.23804        38.17038        -0.01934
C         30.34652        40.17259         0.94480
C         29.15848        39.55145         0.34362
C         30.32318        41.65681         1.22769
C         29.10167        42.40994         0.89176
C         30.33728        44.51946         1.31606
C         29.10646        43.82532         1.02483
C         30.35030        45.95303         1.35740
C         29.12458        46.67777         1.15628
C         30.35849        48.83426         1.28432
C         29.13403        48.12125         1.12344
C         30.36708        50.25898         1.24043
C         29.17393        50.94143         0.90923
C         33.11364        20.43899        -1.57621
C         31.93274        21.12471        -1.78704
C         33.01652        23.20048        -1.12796
C         31.86517        22.52422        -1.59663
C         33.04336        24.65717        -1.09603
C         31.86113        25.39411        -1.41972
C         33.09348        27.51293        -1.09086
C         31.90560        26.80839        -1.42062
C         33.12018        28.95975        -0.99263
C         31.90867        29.72691        -1.11166
C         33.10438        31.80949        -0.60458
C         31.87983        31.10074        -0.88192
C         33.09167        33.21296        -0.46628
C         31.85562        33.96566        -0.94619
C         33.02246        36.07471         0.06724
C         31.79802        35.41273        -0.45803
C         32.88441        37.32384         0.91083
C         31.67424        38.14994         0.51921
C         32.81965        40.13133         1.56849
C         31.64108        39.47264         0.87099
C         32.83578        41.65589         1.46227
C         31.60647        42.37739         1.36007
C         32.78942        44.46801         1.86851
C         31.55559        43.77841         1.45813
C         32.78792        45.98929         1.96116
C         31.55244        46.68903         1.57572
C         32.80743        48.79577         1.77062
C         31.58179        48.09980         1.51407
C         32.75430        50.25190         1.97234
C         31.56284        51.00044         1.57967
C         32.81934        53.11594         1.65243
C         31.61125        52.39276         1.58567
C         35.67155        19.08335        -1.43691
C         35.52776        20.37906        -0.90003
C         34.25343        21.09044        -1.04412
C         35.18270        23.18554         0.12463
C         34.15717        22.45637        -0.73573
C         35.52051        24.48587        -0.71554
C         34.25855        25.33394        -0.86364
C         35.50271        27.47226        -0.57947
C         34.28596        26.75810        -0.83778
C         35.53498        28.87451        -0.49756
C         34.32615        29.63461        -0.68365
C         35.53094        31.78021        -0.26217
C         34.33474        31.07456        -0.50866
C         35.51517        33.17235         0.01046
C         34.27717        33.89696        -0.09077
C         35.44330        35.98585         0.53220
C         34.27563        35.29652         0.19334
C         35.40681        37.41418         0.79375
C         34.17158        38.11612         0.90927
C         35.34352        40.22142         1.26317
C         34.13332        39.48256         1.18751
C         35.33025        41.64228         1.48422
C         34.05822        42.35131         1.55629
C         35.26900        44.51896         1.79765
C         34.08133        43.78034         1.71413
C         35.29304        45.95466         1.86177
C         34.07833        46.70095         1.89667
C         35.30633        48.87306         2.08385
C         34.03803        48.11660         1.91339
C         35.34909        50.31972         1.81269
C         34.10694        51.06015         2.00725
C         35.31509        53.16611         1.46378
C         34.05898        52.48650         1.70084
C         35.33002        54.58041         1.31443
C         37.93674        18.93281        -0.58476
C         36.84451        18.36732        -1.27052
C         37.84979        20.27821        -0.13934
C         36.64393        20.99578        -0.28130
C         37.75645        23.10355         0.60852
C         36.45069        22.28384         0.50970
C         37.83392        24.53287         0.21562
C         36.70840        25.22681        -0.21345
C         37.95707        27.42813         0.06595
C         36.74328        26.69047        -0.41207
C         37.88526        28.89195         0.22448
C         36.76814        29.58155        -0.16370
C         37.99293        31.79193         0.25003
C         36.84931        31.07541        -0.43349
C         37.96075        33.15701         0.49479
C         36.71480        33.88378         0.35169
C         37.90052        35.99315         0.88826
C         36.69295        35.27748         0.59291
C         37.87503        37.40504         1.04470
C         36.61910        38.11362         0.99352
C         37.80367        40.24822         1.32902
C         36.58402        39.52712         1.18387
C         37.78098        41.65745         1.47659
C         36.53275        42.34452         1.57355
C         37.78173        44.52733         1.44863
C         36.57636        43.79420         1.98918
C         37.74517        45.95687         1.39125
C         36.55061        46.63922         1.70994
C         37.79918        48.85160         1.43685
C         36.61354        48.09767         1.89488
C         37.76750        50.24208         1.35382
C         36.54067        50.98760         1.52746
C         37.73672        53.14919         1.05776
C         36.52889        52.44138         1.37134
C         37.72337        54.56783         0.90113
C         36.49531        55.26178         1.06089
C         40.33381        16.01506        -0.27354
C         39.15557        16.74084        -0.45329
C         40.36268        18.83660        -0.07643
C         39.14072        18.13995        -0.34731
C         40.31902        20.20890         0.22187
C         39.01711        20.81823         0.69482
C         40.34405        23.09996         0.56604
C         39.07505        22.35501         0.73851
C         40.29968        24.52431         0.68105
C         39.07364        25.19848         0.50449
C         40.27814        27.35112         1.17942
C         39.03159        26.64852         0.73821
C         40.28069        28.84885         1.16962
C         39.18490        29.56993         0.44809
C         40.42684        31.74387         0.98607
C         39.25077        31.06306         0.42271
C         40.38936        33.17071         1.10182
C         39.16509        33.86871         0.87695
C         40.34528        35.98186         1.32395
C         39.14333        35.28242         1.02901
C         40.33534        37.41830         1.42699
C         39.08119        38.12155         1.28441
C         40.23886        40.27994         1.58946
C         39.04709        39.54404         1.38872
C         40.24103        41.69251         1.50459
C         39.00886        42.38918         1.46879
C         40.22221        44.50701         1.04666
C         38.98773        43.82048         1.32223
C         40.11031        45.91274         0.50071
C         38.94093        46.69653         1.06073
C         40.17976        48.80818         0.65662
C         38.97484        48.08837         1.06910
C         40.17261        50.21646         0.55702
C         39.07314        50.99521         1.24742
C         40.06864        53.11066         0.33244
C         38.95149        52.43670         0.81543
C         40.10024        54.54166         0.25045
C         38.93960        55.27649         0.59562
C         40.18015        57.37218         0.40686
C         39.00403        56.70512         0.63613
C         42.77423        15.94515         0.16911
C         41.56343        16.67008        -0.05546
C         42.83843        18.75190         0.19489
C         41.60515        18.09964        -0.02338
C         42.89472        20.20850         0.08127
C         41.53527        20.97945         0.11913
C         42.81264        23.05565         0.65126
C         41.57879        22.40701         0.49042
C         42.81230        24.53394         0.71417
C         41.54060        25.27255         0.83545
C         42.80071        27.38658         1.31886
C         41.56540        26.63284         1.11315
C         42.81824        28.79712         1.45972
C         41.56106        29.56580         1.39636
C         42.82518        31.68274         1.52862
C         41.61314        31.03215         1.22640
C         42.78759        33.12320         1.93435
C         41.57127        33.86345         1.44702
C         42.81204        35.95871         1.73207
C         41.57699        35.27626         1.51873
C         42.81383        37.41853         2.08645
C         41.51163        38.10428         1.72964
C         42.79769        40.32044         1.71134
C         41.47494        39.55248         1.87209
C         42.69937        41.73151         1.32447
C         41.49235        42.41470         1.37078
C         42.68936        44.54887         0.80803
C         41.44031        43.84321         1.10110
C         42.61523        45.98440         0.56195
C         41.41694        46.66002         0.53740
C         42.56838        48.81321         0.07216
C         41.38413        48.09969         0.41219
C         42.48083        50.18800        -0.25852
C         41.28715        50.89087         0.00698
C         42.42498        53.10705        -0.70389
C         41.19788        52.34884        -0.24729
C         42.51933        54.54701        -0.39447
C         41.32784        55.24084        -0.04411
C         42.60663        57.33276        -0.09083
C         41.37246        56.65801         0.08549
C         43.95403        16.59272         0.44348
C         45.26417        18.73287         0.66343
C         44.03147        18.02155         0.46212
C         45.27004        20.16236         0.69847
C         44.11063        20.91411         0.49182
C         45.25462        23.02039         1.08282
C         44.07584        22.35331         0.68959
C         45.14078        24.37957         1.75203
C         44.07419        25.24659         1.11095
C         45.22888        27.38883         1.69400
C         44.03306        26.69170         1.44781
C         45.26465        28.80761         1.66918
C         44.03359        29.51587         1.56947
C         45.27950        31.67241         1.65463
C         44.04234        30.96314         1.61574
C         45.29010        33.11902         1.60925
C         44.07618        33.84504         1.67469
C         45.28942        35.97902         1.50203
C         44.05009        35.25790         1.65885
C         45.26145        37.39657         1.33040
C         44.02945        38.15135         1.52485
C         45.13015        40.21134         0.71343
C         43.99533        39.52012         1.36080
C         45.11846        41.73361         0.53350
C         44.00617        42.47669         1.30286
C         45.12537        44.55057         0.19411
C         43.89857        43.89077         0.79292
C         45.19306        46.03014         0.51975
C         43.87615        46.75572         0.54027
C         45.01809        48.76990        -0.36594
C         43.84057        48.14231         0.06002
C         44.99342        50.16805        -0.71185
C         43.68854        50.84803        -0.79738
C         44.98075        53.06832        -0.92365
C         43.69102        52.35755        -0.99388
C         44.99297        54.47388        -0.75895
C         43.75340        55.21871        -0.50801
C         43.76656        56.63157        -0.34813
C         47.68985        18.70150         1.13750
C         46.50393        18.04959         0.87623
C         47.78745        20.12393         1.17507
C         46.58944        20.89208         0.66426
C         47.67746        22.97291         1.45742
C         46.50438        22.31587         1.16734
C         47.68360        24.44631         1.39815
C         46.45910        25.15220         1.86409
C         47.77408        27.36779         1.66742
C         46.49507        26.64649         1.87405
C         47.75735        28.81596         1.64730
C         46.51434        29.52690         1.66604
C         47.74991        31.66756         1.48550
C         46.51394        30.95339         1.62042
C         47.76326        33.10177         1.39849
C         46.52340        33.82467         1.48037
C         47.74669        35.96581         1.21496
C         46.51635        35.25769         1.40239
C         47.70416        37.36570         1.05215
C         46.47401        38.06284         1.04901
C         47.70379        40.23192         0.43076
C         46.43913        39.47204         0.61412
C         47.68668        41.62830         0.27826
C         46.49601        42.39264         0.82127
C         47.63224        44.49606         0.10632
C         46.45445        43.84253         0.39136
C         47.69171        46.01124         0.12126
C         46.36838        46.72668        -0.03239
C         47.39791        48.65250        -1.18949
C         46.26659        48.02532        -0.45507
C         47.36742        50.13215        -1.41418
C         46.14953        50.88130        -1.04439
C         47.44037        53.01951        -1.14302
C         46.18259        52.32303        -1.09010
C         47.41731        54.43283        -1.03214
C         46.24285        55.13408        -0.83282
C         50.24394        20.16683         1.59450
C         48.97069        20.80610         1.46180
C         50.22316        23.03450         1.47017
C         48.95300        22.27441         1.82575
C         50.22806        24.44050         1.35012
C         48.95963        25.19943         1.28954
C         50.22643        27.33189         1.45707
C         48.97204        26.66271         1.54130
C         50.27907        28.80757         1.76253
C         48.96954        29.52498         1.54795
C         50.20133        31.63724         1.15067
C         48.97322        30.94155         1.41664
C         50.20928        33.04831         1.04002
C         48.99099        33.79058         1.21130
C         50.20356        35.91246         0.87586
C         49.00876        35.24088         1.11169
C         50.26316        37.38335         0.85322
C         48.95535        38.13901         0.92549
C         50.14559        40.21752         0.20470
C         48.92496        39.53333         0.44397
C         50.11893        41.61964         0.01217
C         48.90135        42.33760         0.09207
C         50.08151        44.47596        -0.36578
C         48.88849        43.78727         0.00118
C         50.01863        45.88635        -0.74724
C         48.83001        46.57626        -0.67811
C         49.97276        48.70786        -1.39747
C         48.71954        47.93158        -1.25462
C         49.96125        50.11197        -1.45725
C         48.69324        50.87543        -1.54255
C         49.94299        52.94859        -1.12183
C         48.69322        52.31840        -1.25230
C         51.41201        20.88993         1.64153
C         52.68422        23.04465         1.36373
C         51.44486        22.32556         1.50626
C         52.67477        24.46648         1.23039
C         51.43358        25.16967         1.25651
C         52.65069        27.32825         1.01533
C         51.41662        26.61771         1.24857
C         52.62471        28.75782         0.85335
C         51.44845        29.49574         1.11410
C         52.57682        31.56309         0.42227
C         51.41394        30.88908         0.91722
C         52.56658        33.00441         0.32548
C         51.43609        33.72137         0.70228
C         52.62085        35.88239         0.11189
C         51.53627        35.20936         0.92868
C         52.57252        37.30761        -0.10393
C         51.43111        38.07056         0.25227
C         52.56325        40.17029        -0.39042
C         51.38989        39.47223         0.06761
C         52.56950        41.57762        -0.53242
C         51.41992        42.37760         0.02921
C         52.46389        44.42610        -1.01648
C         51.30368        43.78315        -0.50275
C         52.42829        45.85259        -1.30076
C         51.22624        46.56724        -1.18458
C         52.42692        48.70820        -1.56434
C         51.20309        47.99185        -1.37797
C         52.42746        50.13154        -1.59121
C         51.18601        50.84482        -1.45067
C         51.13935        52.25420        -1.28062
C         55.11834        23.08099         1.21757
C         53.94090        22.38070         1.36025
C         55.12843        24.49146         1.04792
C         53.89791        25.18878         1.05445
C         55.06372        27.32197         0.51150
C         53.86239        26.62074         0.86081
C         55.01926        28.70573         0.21781
C         53.79172        29.43664         0.37969
C         54.88184        31.49347        -0.60724
C         53.74381        30.83001         0.13140
C         54.92331        32.99253        -0.44739
C         53.77028        33.70115        -0.11802
C         54.81727        35.77035        -1.10545
C         53.72498        35.13993        -0.27360
C         54.89992        37.26547        -0.96021
C         53.73548        37.99054        -0.61386
C         54.93307        40.09560        -1.08371
C         53.73944        39.41382        -0.70602
C         54.91696        41.52016        -1.26704
C         53.71415        42.26108        -1.02984
C         54.78511        44.36708        -1.88765
C         53.64064        43.68003        -1.26420
C         54.83553        45.84890        -1.86884
C         53.63774        46.55953        -1.63728
C         54.87343        48.68678        -1.95097
C         53.65034        47.98572        -1.71657
C         54.83956        50.11400        -1.97281
C         53.66766        50.80676        -1.78444
C         57.62755        24.57360         0.91314
C         56.36761        25.21623         0.83695
C         57.51900        27.27063         0.17464
C         56.31863        26.59738         0.50524
C         57.45285        28.64410        -0.34453
C         56.21275        29.42390        -0.17288
C         57.43639        31.52456        -0.64755
C         56.20850        30.79089        -0.42110
C         57.39994        32.94717        -0.82898
C         56.15610        33.68079        -0.76976
C         57.34802        35.77905        -1.27502
C         56.14623        35.06743        -0.96419
C         57.33293        37.19138        -1.47928
C         56.10320        37.94538        -1.25652
C         57.44813        40.08414        -1.37894
C         56.12740        39.35741        -1.29202
C         57.32362        41.50037        -1.88255
C         56.11899        42.16870        -1.70833
C         57.34315        44.32500        -2.15670
C         56.04956        43.59131        -2.09330
C         57.31201        45.80530        -2.28078
C         56.02460        46.54042        -2.16520
C         57.38173        48.59869        -2.29910
C         56.07992        47.95044        -2.16059
C         58.80158        25.26329         0.66910
C         59.99569        27.36995         0.10877
C         58.76707        26.62126         0.27814
C         60.00367        28.68563        -0.21327
C         58.76080        29.38939        -0.58002
C         59.88258        31.60843        -0.76019
C         58.69142        30.86511        -0.63164
C         59.84487        32.96578        -1.00113
C         58.60877        33.65540        -1.07067
C         59.74154        35.75504        -1.79629
C         58.57704        35.06563        -1.36818
C         59.70473        37.09982        -2.08179
C         58.51661        37.85945        -1.88381
C         59.57202        39.95863        -2.69702
C         58.52693        39.28679        -2.05936
C         59.59727        41.34816        -2.82630
C         58.50371        42.16106        -2.42243
C         59.72117        44.33682        -2.85675
C         58.54259        43.56834        -2.56125
C         59.70654        45.69580        -2.98878
C         58.42133        46.47958        -3.05639
C         58.50366        47.93093        -2.65236
O         30.10212        40.68219         2.32893
O         45.52731        39.58208        -0.56215
O         24.35939        41.88038         0.90923
O         32.63583        36.28599        -1.33319
O         34.57810        23.58218         1.29474
O         36.12626        48.48706         3.23025
O         39.27598        26.90721         2.16445
O         32.64259        45.15243         3.16373
O         55.15983        43.83242        -3.23493
O         46.57370        25.82733         3.15252
O         37.83248        27.05847        -1.35720
O         41.37156        52.75539        -1.65529
O         40.58831        29.31989         2.51975
O         30.86596        28.48154        -2.93261
O         44.68310        46.50876         1.78271
O         48.14968        24.89721         0.06789
O         57.65883        45.20217        -0.99239
O         47.78227        47.93210        -2.40632
O         25.71108        46.25328         2.07363
O         42.23346        40.05481         3.04809
O         33.37568        50.68362         3.21390
O         43.53699        51.46674        -2.13000
O         49.81742        38.00153         2.11814
O         27.21466        26.30417        -3.84574
O         42.27678        20.73567        -1.13210
O         43.78438        25.05107        -0.30066
O         38.38325        22.90894         1.90777
O         39.64231        30.22880        -0.79214
O         58.03309        28.76549        -1.69421
O         47.87451        50.52397        -2.71995
O         44.34632        42.56164         2.72837
H         43.57334        42.94404         3.19637
O         37.17473        31.15678        -1.86733
H         38.07163        30.75448        -1.96646
O         54.41608        35.53909        -2.51279
H         54.37361        34.56643        -2.64340
O         27.78564        28.59421         0.08233
H         28.44195        27.93078         0.38967
O         31.98250        34.01897        -2.39853
H         32.54198        34.80630        -2.59761
O         57.98483        46.44790        -4.45558
H         58.65101        46.92635        -4.99161
O         44.81180        41.95546        -0.86561
H         45.15636        41.16573        -1.35381
O         44.90545        44.57959        -1.25669
H         44.83518        43.63429        -1.54297
O         48.94524        22.28456         3.30738
H         49.74140        21.79142         3.60155
O         29.11585        30.85073         0.79559
H         28.39188        30.17803         0.88044
O         51.74608        42.55054         1.47016
H         51.70010        41.66263         1.88675
O         44.66980        24.10800         3.09804
H         45.17349        24.70373         3.70409
O         54.56447        31.30740        -2.04576
H         54.67824        30.35376        -2.24897
O         32.65055        36.90905         2.28416
H         32.62358        37.73316         2.82924
O         50.53262        28.89898         3.22116
H         49.77494        28.47074         3.67450
O         48.06031        46.32592         1.52413
H         48.76739        45.69959         1.79259
O         42.64945        33.08706         3.41626
H         41.84182        32.56832         3.62140
O         38.77536        20.35579         2.04602
H         37.98218        20.85666         2.36313
O         36.78683        43.77112         3.45405
H         35.95490        43.45452         3.86740
O         32.62929        39.81257         2.99181
H         31.72276        40.14298         3.21933
O         46.81496        42.36267         2.23966
H         46.09735        42.81921         2.74044
O         36.16969        21.79280         1.83749
H         35.47888        22.42878         2.18706
O         29.12281        33.65136         1.11628
H         29.07674        32.67094         1.25865
O         46.87106        21.04733        -0.77684
H         46.10270        21.50244        -1.18424
O         39.78332        45.73377        -0.92795
H         40.54570        45.28347        -1.35057
O         57.90706        40.20811         0.03113
H         57.24191        40.75243         0.50483
O         51.98103        35.36427         2.32863
H         51.24338        35.07885         2.90896
O         42.93378        37.47484         3.54867
H         42.78497        38.41956         3.80206
O         35.88424        23.96247        -2.02704
H         36.18692        24.71370        -2.58089
O         39.55305        51.10400         2.64549
H         39.37684        50.24687         3.09007
H         22.40226        27.15911        -3.03981
H         22.39800        29.61016        -2.88140
H         22.48030        31.50675        -2.96233
H         22.48635        33.91710        -2.72149
H         22.46916        35.77135        -2.45956
H         22.42974        38.15975        -2.06331
H         22.61577        40.06408        -2.21110
H         22.52981        42.45131        -1.82517
H         22.34978        44.28795        -1.18877
H         22.30194        46.72384        -0.83031
H         25.60454        23.67691        -2.61433
H         23.56579        25.00933        -2.81856
H         25.41130        49.94540         0.71022
H         23.36331        48.76740         0.11075
H         27.33499        22.70630        -2.53354
H         27.08062        50.82729         0.50625
H         29.41408        21.48777        -2.13877
H         29.16981        52.03416         0.81049
H         33.13537        19.36294        -1.79138
H         31.06236        20.56772        -2.15691
H         32.75631        54.20472         1.52585
H         30.69556        52.97294         1.41154
H         34.84216        18.60692        -1.97446
H         34.39648        55.14905         1.41005
H         36.91355        17.34848        -1.67498
H         36.45532        56.35267         0.94839
H         40.30904        14.91627        -0.30844
H         38.22227        16.19391        -0.64559
H         40.22015        58.46834         0.48201
H         38.11022        57.28624         0.89808
H         42.74371        14.84590         0.14780
H         42.63577        58.42762         0.00475
H         44.85437        15.99439         0.63691
H         44.70581        57.18991        -0.45092
H         48.57643        18.09485         1.37069
H         46.51219        16.95109         0.87516
H         48.35463        55.00011        -1.10207
H         46.29887        56.22656        -0.74661
H         50.30791        19.06941         1.56976
H         49.99791        54.02638        -0.91755
H         52.35866        20.33689         1.70105
H         52.07698        52.82172        -1.21405
H         56.06245        22.52095         1.21272
H         53.98961        21.28928         1.46686
H         55.76465        50.67759        -2.15356
H         53.69105        51.90418        -1.82078
H         57.68890        23.51309         1.18999
H         57.45377        49.67285        -2.07429
H         59.77079        24.75285         0.76140
H         60.94157        26.85588         0.33565
H         60.95530        29.23503        -0.21045
H         60.85517        31.10063        -0.72751
H         60.79143        33.50356        -1.13579
H         60.68922        35.21677        -1.92458
H         60.62675        37.59920        -2.40660
H         60.40581        39.38852        -3.13044
H         60.46534        41.81584        -3.31027
H         60.68544        43.81201        -2.93392
H         60.64972        46.22952        -3.18481
H         59.46615        48.46034        -2.72737
