         651
 CSIRO Nanostructure Databank - Neutral Graphene Oxide Data Set
C          5.95081        31.82379        -2.03351
C          6.06925        33.19182        -2.11163
C          8.21011        27.37749        -1.83661
C          8.17715        28.73967        -1.60060
C          7.01585        29.57376        -1.81655
C          8.38604        31.62014        -1.59604
C          7.06099        30.95710        -1.73992
C          8.54662        33.09232        -1.84791
C          7.31115        33.90634        -1.93977
C          8.56216        36.00977        -1.46896
C          7.35546        35.28128        -1.77809
C          8.56282        37.39197        -1.25383
C         10.63749        23.06042        -1.77441
C         10.63099        24.42952        -1.81923
C          9.40151        25.19266        -1.80734
C         10.64629        27.21797        -1.25467
C          9.39827        26.57132        -1.65505
C         10.57677        28.57313        -0.68544
C          9.32349        29.37246        -0.89465
C         10.68223        31.57081        -0.28523
C          9.40685        30.87193        -0.80151
C         10.83891        33.02886        -0.67791
C          9.88230        33.78781        -1.58632
C         10.93710        35.88736        -0.87291
C          9.77985        35.25404        -1.23165
C         11.02794        37.35687        -0.93365
C          9.75931        38.11930        -0.94871
C         11.01214        40.18650        -0.34366
C          9.80690        39.48586        -0.70592
C         10.98025        41.55309        -0.06512
C         13.21618        18.77977        -1.17536
C         13.15685        20.16806        -1.55358
C         11.94665        20.84766        -1.64773
C         13.18882        23.02325        -2.09274
C         11.86456        22.26636        -2.00853
C         13.19426        24.47989        -1.81916
C         11.89973        25.22651        -2.09441
C         13.10311        27.27477        -1.19993
C         11.86253        26.57947        -1.41605
C         13.12153        28.60826        -0.88353
C         11.89210        29.32220        -0.54117
C         13.20255        31.42258        -0.10382
C         11.95223        30.82078        -0.74407
C         13.22652        32.89800         0.07735
C         11.99917        33.64605        -0.33073
C         13.31856        35.81340         0.15019
C         12.06933        35.12514        -0.30890
C         13.47550        37.26664        -0.08830
C         12.31670        38.04760        -0.56674
C         13.42939        40.11113         0.21519
C         12.27632        39.48182        -0.21417
C         13.41303        41.56193         0.65449
C         12.13988        42.32619         0.26032
C         13.07363        44.61253         0.46411
C         11.95988        43.68266         0.50136
C         13.44065        45.71029         1.16401
C         15.71946        14.79397         0.35079
C         15.68241        16.13354         0.04619
C         14.35693        16.71290        -0.39985
C         15.65271        18.85557        -0.94146
C         14.40397        18.15169        -0.86002
C         15.65441        20.20106        -1.41891
C         14.41932        20.86814        -1.68720
C         15.63621        22.97414        -1.74959
C         14.42621        22.26975        -1.83606
C         15.68710        24.43534        -1.44730
C         14.34989        25.11699        -1.51152
C         15.63822        27.27998        -1.72681
C         14.42938        26.56220        -1.12580
C         15.60473        28.75184        -1.59298
C         14.36613        29.39654        -1.07886
C         15.80628        31.42119        -0.40765
C         14.49533        30.69565        -0.34963
C         15.83113        32.88205        -0.14364
C         14.52641        33.63192        -0.24686
C         15.83390        35.62669         0.81550
C         14.54336        34.97293         0.44461
C         15.74815        37.12273         0.82782
C         14.62181        37.90416         0.31528
C         15.80204        40.01516         0.90895
C         14.65067        39.36402         0.45231
C         15.93418        41.44371         0.93165
C         14.78809        42.20586         0.50217
C         16.11918        44.27138         0.73336
C         14.99382        43.53260         0.21268
C         16.02893        45.64611         0.99649
C         14.72531        46.42857         0.75824
C         15.91451        48.46923         1.68295
C         14.73347        47.80396         1.34906
C         15.92825        49.87142         1.81927
C         18.31413        10.80467         1.84263
C         18.17109        12.15425         1.59268
C         16.95205        12.80812         1.18086
C         18.01070        15.07243         1.24432
C         16.89607        14.15937         0.87504
C         18.00017        16.48058         0.79959
C         16.86542        16.97676         0.17334
C         18.07409        19.02602        -0.54731
C         16.86623        18.30072        -0.43079
C         18.13435        20.28537        -1.19406
C         16.88667        20.91034        -1.54214
C         18.09370        23.07170        -1.92258
C         16.86619        22.30860        -1.74807
C         18.06804        24.41345        -2.15111
C         16.75114        25.13796        -2.30283
C         18.09081        27.32848        -2.16285
C         16.81320        26.62888        -2.01075
C         18.04905        28.85451        -2.25649
C         16.89147        29.48476        -1.52463
C         18.18423        31.57854        -1.27147
C         16.95583        30.76699        -1.08653
C         18.24522        32.95450        -0.67657
C         17.03014        33.57336        -0.05616
C         18.43784        35.42445         0.70972
C         17.13351        34.90857         0.49693
C         18.65809        36.69240         1.38680
C         16.76357        37.81210         1.38967
C         18.38693        39.81239         1.25404
C         17.02806        39.21675         1.09653
C         18.37294        41.27701         1.69202
C         17.17424        42.06023         1.17193
C         18.45092        44.14806         1.53388
C         17.26624        43.48767         1.15148
C         18.44455        45.57855         1.72166
C         17.18741        46.32535         1.53020
C         18.29271        48.36933         2.44700
C         17.13640        47.68496         1.83669
C         18.34120        49.87116         2.42647
C         17.22347        50.60781         1.71809
C         18.36327        52.71572         2.39637
C         17.17167        52.03976         2.14951
C         18.38463        54.13386         2.53357
C         20.92300         6.86789         3.52222
C         20.82729         8.36164         3.39392
C         19.63766         8.88316         2.62500
C         20.81879        11.05400         2.35534
C         19.57911        10.18217         2.20893
C         20.72688        12.30742         1.48913
C         19.40464        12.96084         1.40564
C         20.58888        15.26440         1.69820
C         19.32768        14.44057         1.60424
C         20.52667        16.73534         1.38105
C         19.20923        17.32507         0.97102
C         20.59262        19.17120        -0.24336
C         19.28629        18.60862         0.16937
C         20.60736        20.37395        -0.99068
C         19.36976        20.97556        -1.35023
C         20.59118        23.11078        -1.96499
C         19.35022        22.26838        -2.13585
C         20.56574        24.44239        -2.21307
C         19.29210        25.14663        -2.63361
C         20.56389        27.33874        -2.46954
C         19.28006        26.64413        -2.32639
C         20.52985        28.83113        -2.50039
C         19.36275        29.52637        -1.92803
C         20.70853        31.58570        -1.53844
C         19.44372        30.85030        -1.57561
C         20.75644        32.91220        -0.97257
C         19.58028        33.55586        -0.46960
C         20.93886        35.43861         0.38587
C         19.62550        34.78463         0.19618
C         20.98614        36.90335         0.84044
C         19.71115        37.54663         1.18862
C         20.93241        39.78616         1.40298
C         19.65065        39.00482         1.55178
C         20.88231        41.27922         1.33717
C         19.68660        41.98618         1.45577
C         20.91071        44.08276         1.81719
C         19.69325        43.40795         1.62677
C         20.88857        45.46258         2.43296
C         19.60277        46.21062         2.15509
C         20.88487        48.39056         2.60557
C         19.57853        47.61831         2.58536
C         20.86350        49.86990         2.49692
C         19.64580        50.57499         2.46273
C         20.85514        52.71202         2.45682
C         19.62789        51.98876         2.41948
C         20.82466        54.13071         2.55479
C         19.59056        54.84853         2.57886
C         20.72526        57.04272         2.33742
C         19.57885        56.29293         2.50717
C         20.72160        58.46440         2.14285
C         23.35826         4.31730         4.67374
C         22.20078         4.86730         4.18006
C         23.32108         7.07730         4.08898
C         22.11878         6.27758         3.90320
C         23.35625         8.41269         3.62005
C         22.15019         8.92926         2.92017
C         23.40675        11.08082         2.55795
C         22.16353        10.29818         2.32572
C         23.59853        12.36196         1.97280
C         21.89370        13.20906         1.34925
C         23.11054        15.33130         1.63881
C         21.90171        14.58840         1.55014
C         23.04236        16.85101         1.63906
C         21.79022        17.39642         0.97232
C         23.13000        19.02268        -0.37236
C         21.80489        18.52405         0.17165
C         23.06433        20.40510        -0.99221
C         21.88703        21.01692        -1.33027
C         23.10864        23.21165        -1.80202
C         21.89243        22.34568        -2.09042
C         23.10013        24.55090        -2.09073
C         21.82806        25.14906        -2.66405
C         23.04326        27.35790        -2.83290
C         21.75947        26.65834        -2.53978
C         23.03775        28.86700        -2.96006
C         21.78547        29.64043        -2.67117
C         23.15213        31.66178        -2.00073
C         21.87674        30.98104        -2.03709
C         23.19506        33.02150        -1.48713
C         22.01446        33.61807        -0.94507
C         23.28558        35.68617        -0.40911
C         22.09672        34.91448        -0.36026
C         23.31425        37.05131         0.09347
C         22.18738        37.70692         0.58418
C         23.34319        39.87701         0.79004
C         22.17691        39.11231         0.93056
C         23.34261        41.31136         1.02876
C         22.11612        41.99829         1.29161
C         23.38931        44.08828         1.66169
C         22.13357        43.39700         1.58871
C         23.43735        45.49612         2.22135
C         22.13878        46.28177         2.14051
C         23.33675        48.45093         2.11435
C         22.13035        47.65460         2.25390
C         23.32730        49.83141         2.25142
C         22.09350        50.58163         2.40305
C         23.34006        52.75359         2.25421
C         22.10154        52.00112         2.39876
C         23.33302        54.16944         2.27075
C         22.08910        54.86357         2.62313
C         23.23582        57.03677         1.91422
C         22.04575        56.38719         2.46268
C         23.08163        58.40592         1.29941
C         21.86816        59.16149         1.79323
C         23.08238        61.26902         1.48042
C         21.90217        60.58167         1.74548
C         24.49554         5.12635         4.94127
C         25.70056         7.32232         5.00468
C         24.48384         6.48619         4.66636
C         25.66005         8.74529         4.48506
C         24.48954         9.23415         3.81382
C         25.55403        11.47365         3.67612
C         24.47188        10.60685         3.36934
C         25.40262        12.97171         3.54397
C         24.42880        13.35646         2.46753
C         25.50899        15.53028         2.17431
C         24.33358        14.72488         2.04563
C         25.52361        16.84499         1.57948
C         24.33780        17.48087         1.19084
C         25.57865        19.30367         0.08505
C         24.26325        18.91002         0.70761
C         25.67627        20.27704        -1.06409
C         24.37019        21.01620        -1.37448
C         25.63784        23.25866        -1.57339
C         24.38917        22.48499        -1.69573
C         25.58495        24.64636        -1.87335
C         24.34318        25.31940        -2.16075
C         25.57993        27.40266        -2.67370
C         24.34225        26.67938        -2.53942
C         25.62378        28.87367        -2.99672
C         24.31840        29.64743        -2.95721
C         25.59301        31.77452        -2.58813
C         24.32173        31.03108        -2.45499
C         25.60960        33.22239        -2.16160
C         24.39530        33.78386        -1.52073
C         25.62960        35.92791        -1.34789
C         24.43532        35.10474        -1.03736
C         25.68222        37.33752        -0.76117
C         24.64644        37.72185         0.27826
C         25.77916        39.92422         0.46509
C         24.58477        39.22362         0.47007
C         25.78970        41.35822         0.67748
C         24.54355        42.04266         0.98476
C         25.93975        44.11185         1.48971
C         24.57155        43.42944         1.35444
C         25.83929        45.62481         1.54546
C         24.64828        46.25804         1.73282
C         25.77455        48.50712         1.32428
C         24.54380        47.73213         1.62636
C         25.83608        49.92619         1.75447
C         24.59259        50.60933         2.20299
C         25.76508        52.81770         1.85538
C         24.58024        52.08869         2.09797
C         25.72510        54.22597         1.74757
C         24.50424        54.91369         1.99224
C         25.63569        57.07393         1.39323
C         24.43188        56.35336         1.79761
C         25.57904        58.48871         1.25741
C         24.37121        59.19274         1.33155
C         24.30549        60.59702         1.30569
C         26.75446         9.56946         4.66280
C         27.87727        11.78187         4.39616
C         26.74052        10.95387         4.26473
C         27.90794        13.10661         3.84431
C         26.70840        13.68576         3.33200
C         27.95207        15.65418         2.55648
C         26.71681        14.95037         2.69456
C         28.00156        16.86029         1.78780
C         26.79594        17.41585         1.27297
C         28.12890        19.21749         0.00603
C         26.76888        18.54035         0.34579
C         28.07907        20.65227        -0.38040
C         26.89864        21.20482        -0.87408
C         28.05767        23.38726        -1.19265
C         26.84960        22.60785        -1.23175
C         28.02602        24.73166        -1.60675
C         26.80940        25.37931        -1.94604
C         28.07061        27.39243        -2.73956
C         26.78463        26.74479        -2.38075
C         28.10021        28.89524        -3.03174
C         26.87673        29.66027        -2.77444
C         28.12605        31.82024        -2.56568
C         26.89128        31.04439        -2.63970
C         28.15583        33.19695        -2.28187
C         26.91975        33.90794        -1.98089
C         28.11993        36.11852        -1.97147
C         26.89672        35.25764        -1.72787
C         28.19643        37.26947        -0.98163
C         26.97462        37.99582        -0.58848
C         28.22179        39.98377         0.12317
C         27.02596        39.26352         0.05990
C         28.24401        41.41280         0.48736
C         26.95015        42.09760         0.53530
C         28.11727        44.31675        -0.00635
C         26.80552        43.58735         0.28511
C         28.07720        45.60723        -0.50634
C         27.11738        46.40897         1.60573
C         28.11166        48.53035         0.56692
C         27.08310        47.82648         1.12613
C         28.08374        50.02453         0.53122
C         26.93679        50.73761         1.16940
C         28.20187        52.87910         1.05707
C         27.11259        52.11599         1.77599
C         28.09841        54.28439         0.99807
C         26.91550        54.96514         1.34626
C         26.83342        56.37265         1.20872
C         29.10698        13.84693         3.76332
C         30.36131        15.84304         3.00244
C         29.15348        15.10931         3.11625
C         30.42417        17.04306         2.25963
C         29.25158        17.49830         1.58223
C         30.59410        19.48024         0.70084
C         29.35153        18.64681         0.66870
C         30.50553        20.88941         0.26164
C         29.29046        21.43637        -0.24182
C         30.51436        23.48590        -0.76666
C         29.28984        22.77981        -0.70954
C         30.53249        24.71025        -1.64087
C         29.27472        25.56954        -1.46833
C         30.56991        27.42434        -2.60268
C         29.33891        26.76422        -2.39541
C         30.62664        28.81905        -2.76491
C         29.41177        29.60109        -3.01045
C         30.67319        31.72353        -2.36766
C         29.40829        31.10252        -2.83267
C         30.68936        33.21105        -2.45144
C         29.41567        33.97266        -2.27592
C         30.70810        36.15773        -2.12494
C         29.43055        35.34380        -2.08637
C         30.76861        37.56292        -1.51323
C         29.47989        38.00700        -0.86505
C         30.73935        40.04964        -0.20458
C         29.38231        39.50541        -0.69492
C         30.67669        41.55246        -0.32206
C         29.50936        42.22726         0.35639
C         30.59970        44.36885        -0.19733
C         29.42827        43.70652         0.13720
C         30.60170        45.75640        -0.67216
C         29.28761        46.47652        -0.59910
C         30.59695        48.63391         0.02563
C         29.29587        47.91197        -0.10093
C         30.55318        50.05276         0.28715
C         29.37733        50.75652         0.47783
C         29.32686        52.18353         0.60671
C         31.62701        17.82427         2.23133
C         32.87863        19.84665         1.55086
C         31.71543        19.05338         1.57115
C         32.92881        21.05882         0.81277
C         31.70243        21.62790         0.26785
C         33.00293        23.56004        -0.60003
C         31.72686        22.91624        -0.33721
C         33.07177        24.76469        -1.31184
C         31.81309        25.57104        -1.49579
C         33.16847        27.37205        -2.72439
C         31.85501        26.58942        -2.64227
C         33.16031        28.89591        -2.72789
C         31.85066        29.50533        -2.20680
C         33.02892        31.61933        -1.50431
C         31.82025        31.01326        -2.19599
C         33.16349        33.11630        -1.71260
C         32.01462        33.89333        -2.25882
C         33.25060        35.99066        -1.51026
C         32.01342        35.38782        -2.10408
C         33.15921        37.28371        -0.82606
C         31.96017        37.89205        -0.63707
C         33.20090        40.10100        -1.01700
C         31.86542        39.35460        -0.99931
C         33.21476        41.59228        -0.76346
C         31.91889        42.31390        -0.58518
C         33.22419        44.46003        -0.25918
C         31.92695        43.68263         0.10215
C         33.15216        45.86525        -0.22902
C         31.91594        46.57035        -0.54159
C         31.79033        48.00077        -0.22271
C         34.14294        21.72474         0.60041
C         35.45531        23.53143        -0.45025
C         34.21824        22.92608        -0.15935
C         35.53888        24.73341        -1.18796
C         34.31813        25.36889        -1.62050
C         35.66074        27.03399        -2.71773
C         34.38931        26.57814        -2.38563
C         35.67211        29.16598        -2.76218
C         34.39612        29.67986        -2.46643
C         35.53945        31.56345        -1.44968
C         34.34378        30.93549        -1.83464
C         35.42827        32.86023        -0.68044
C         34.30075        33.69866        -1.26021
C         35.48254        35.76324        -0.27981
C         34.45654        35.16672        -1.20687
C         35.56537        37.23642        -0.25480
C         34.40739        37.97860        -0.52555
C         35.66868        40.08194        -0.36411
C         34.42754        39.38209        -0.60743
C         35.67889        41.48756        -0.27048
C         34.39516        42.22956        -0.01910
C         34.38730        43.71272        -0.32846
C         36.79479        25.37624        -1.39374
C         38.05233        27.42099        -2.08095
C         36.87035        26.57994        -2.10207
C         38.05966        28.81771        -2.04740
C         36.85499        29.63888        -2.16071
C         38.00751        31.54194        -1.05502
C         36.78987        30.91326        -1.54577
C         37.98900        32.84419        -0.58689
C         36.74050        33.66130        -0.77902
C         37.96306        35.64680         0.49856
C         36.68656        34.94439         0.03733
C         37.99803        37.11540         0.11292
C         36.83772        37.88914        -0.08902
C         36.85570        39.31340        -0.17050
C         39.26102        29.50123        -1.63285
C         40.46220        31.49172        -0.76537
C         39.25114        30.80474        -1.16070
C         40.44683        32.78819        -0.34920
C         39.20922        33.54291        -0.23869
C         39.20770        34.86735         0.14523
O         32.78131        31.39837        -0.09915
O         22.96216        28.02811        -4.13574
O         22.26571         9.11833         1.47014
O         18.40124        14.81783         2.65293
O         12.24250        35.57443         1.11982
O         20.52836        16.24837         2.77739
O         24.85304        48.21581         0.22839
O         19.01311        18.61086         1.63570
O         29.07619        37.12383         0.20990
O         22.23603        55.76740         3.77535
O         17.63978        37.13966         2.22823
O         29.16294        41.71487         1.66664
O         33.14771        28.15058        -3.97253
O         35.60963        35.05804         1.00794
O         25.01763        29.39812        -4.21831
O         30.38305        18.50066        -0.38252
O         24.43653        21.45430        -2.77427
O         21.86451        24.80630        -4.05955
O         20.27473        47.86869         3.85697
O         11.18896        28.79538         0.62537
O         28.10866        45.98999         2.19166
O         25.25851        37.12658        -2.13310
O         15.38123        30.64447         0.80035
O         35.77954        28.07698        -3.64311
O         29.04850        47.57340        -1.52673
O         25.61655        50.11319         3.18555
O         14.66970        29.47496        -2.52494
O         17.97591        32.75232        -2.13384
O         14.01903        44.20515        -0.51297
O         31.54793        33.55290        -3.60214
O          8.76829        32.10398        -2.92803
O         20.84445        29.49962        -3.78759
O         27.01074        50.64450        -0.27776
O         12.49795        22.61650        -3.31442
O         27.57030        18.28326        -0.89095
O         28.01127        27.93175        -4.10947
O         17.94071        49.17355         3.63303
O         22.97592        12.61677         0.71360
O         31.25955        38.80817        -2.30427
O         31.53511        36.04990        -3.31156
O         30.95150        42.10460        -1.64754
O         20.05626        12.39741         0.18574
O          8.80677        30.09275         0.27687
O         17.94723        39.48378        -0.09580
O         21.27050        35.78365         1.77295
O         29.51615        30.52694        -4.16927
O         33.45336        41.08326        -2.08678
O         14.98405        34.96297         1.82246
O         31.36915        46.08343        -1.84645
O         32.00155        43.47968         1.47243
O         20.40421        39.34672         2.74744
O         13.13286        32.01973         1.21956
O         11.98250        37.78931        -1.98653
O         25.45709        32.86356        -3.57787
O         34.38357        35.91691        -2.45134
O         10.57926        33.83530        -2.86756
H         10.43820        32.96365        -3.30612
O         14.63605        46.70167        -0.68257
H         15.48921        47.09293        -0.96513
O         10.61769        31.56458         1.14253
H         10.45142        30.63663         1.43040
O         21.97667        22.06855        -3.52950
H         22.03606        22.97747        -3.95862
O         19.31541        21.83504        -3.53172
H         20.26312        21.72160        -3.81726
O         20.93878        45.23118         3.89663
H         20.70332        46.10178         4.31092
O         19.25397        25.07893        -4.09122
H         20.21680        25.03240        -4.39464
O         23.67269        45.33174         3.66389
H         22.79085        45.10289         4.06160
O         13.77465        15.88945        -1.42475
H         14.30993        15.98622        -2.23890
O         26.56127        43.63612         2.69122
H         26.10157        44.03565         3.45904
O         13.27153        41.49150         2.12383
H         12.45716        40.98138         2.32121
O         31.73912        26.36404        -0.27276
H         32.09466        25.83205         0.46972
O         14.39050        33.90772        -1.68264
H         15.28057        33.99444        -2.08749
O         17.82389        29.15002        -3.66687
H         18.67299        29.02803        -4.14656
O         26.94742        46.15676        -0.98581
H         27.18830        47.01172        -1.42116
O         36.83630        34.13744        -2.15759
H         36.84447        33.35907        -2.75463
O         23.49372        18.09947        -1.43301
H         24.32221        18.42791        -1.86695
O         16.38379        24.99912        -3.69224
H         17.20499        25.11745        -4.22666
O         16.20478        24.50712        -0.07026
H         15.70260        23.86632         0.47653
O         11.90664        25.47575        -3.53155
H         12.05197        24.60311        -3.96583
O         37.93648        35.70611         1.96186
H         36.98768        35.61119         2.22227
O         27.59728        51.94598         3.13469
H         26.92778        51.40241         3.61782
O         25.92056        19.48526        -2.27081
H         25.72148        20.08124        -3.03304
O         25.19107        37.16329         1.52204
H         24.54987        37.34359         2.24241
O         26.89869         6.66431         4.56426
H         26.87078         6.60127         3.58759
O         30.40585        24.16667        -2.97211
H         31.25578        23.75492        -3.23279
O         30.95738        39.70676         1.17032
H         30.37220        40.28016         1.72822
O         27.92517        36.77919        -3.25306
H         27.77926        36.09465        -3.93986
O         20.66937         8.92129         4.76273
H         19.89678         8.48119         5.17770
O         22.94556        17.28525         3.04908
H         22.08013        16.93382         3.38724
O         29.07870        40.08937        -1.99041
H         29.84832        39.92783        -2.59066
O         24.85108        13.44814         4.83510
H         25.50593        13.22411         5.53009
O         20.76098        11.60516         3.70482
H         20.70200        10.84113         4.33235
O         14.71070        26.62293         0.31583
H         15.48648        26.02965         0.48357
O         18.22189        41.20967         3.14508
H         19.00877        40.72828         3.49443
O         29.16725        26.15006        -0.14053
H         30.03119        26.60052         0.05123
O         23.93200        19.78950         1.82762
H         23.51485        19.22865         2.52383
O         31.83073        25.88028        -3.89966
H         32.04341        26.53983        -4.59838
O         25.94862        43.73263        -0.87271
H         26.43306        43.41806        -1.66399
O         31.76751        29.12124        -0.79948
H         32.14246        29.90568        -0.26063
O         12.04344        31.03569        -2.17388
H         12.84627        30.59233        -2.53125
O         17.61224        50.59539         0.28018
H         16.97091        51.15886        -0.20288
O         35.12262        32.51003         0.67841
H         34.22885        32.04926         0.64167
O         34.17445        42.03057         1.40114
H         33.35867        42.57299         1.67063
O         22.80367        58.16003        -0.13035
H         23.63068        57.81853        -0.53324
H          4.96227        31.36505        -2.18654
H          5.16395        33.79088        -2.29409
H          7.31460        26.88243        -2.24310
H          6.07004        29.08320        -2.09565
H          6.41440        35.85006        -1.84216
H          7.61737        37.94954        -1.33977
H          9.69268        22.51431        -1.62287
H          8.45011        24.65784        -1.95161
H          8.87705        40.07284        -0.76053
H         10.02768        42.09209        -0.18876
H         12.27500        18.21574        -1.09406
H         11.01589        20.32467        -1.37901
H         10.93167        44.08107         0.52414
H         12.83060        46.11559         1.98186
H         14.81626        14.18634         0.19087
H         13.65305        16.65090         0.47587
H         13.80850        48.39136         1.24024
H         14.98538        50.42522         1.69008
H         17.42121        10.16035         1.84618
H         16.05152        12.19226         1.03450
H         16.22199        52.59397         2.10345
H         17.43150        54.68248         2.51585
H         20.01523         6.25371         3.41855
H         18.72745         8.26214         2.59636
H         18.59925        56.79273         2.46383
H         19.78375        59.01496         2.31687
H         23.40743         3.24059         4.88877
H         21.31300         4.24192         4.00826
H         23.07326        62.36801         1.47035
H         20.98612        61.14246         1.98300
H         25.40297         4.66766         5.35816
H         25.77478         7.37088         6.12798
H         26.52025        59.04459         1.12623
H         25.23397        61.17751         1.20110
H         27.66101         9.16458         5.13666
H         28.80209        11.36415         4.82033
H         28.93940        54.86506         0.58857
H         27.73572        56.92751         0.91042
H         30.03481        13.42124         4.17424
H         31.27161        15.46153         3.48748
H         31.50922        50.59744         0.28409
H         30.21474        52.75783         0.29879
H         32.49470        17.46235         2.80269
H         33.78520        19.49376         2.06434
H         34.00849        46.44912         0.14518
H         32.72381        48.57002        -0.09083
H         35.07282        21.28329         0.98861
H         36.38134        23.05724        -0.09274
H         36.63023        41.99759        -0.05263
H         35.31032        44.18353        -0.70540
H         37.69349        24.95499        -0.91982
H         38.99463        26.91990        -1.80337
H         38.95811        37.64011         0.24140
H         37.80712        39.84352        -0.01638
H         40.20934        28.94165        -1.64078
H         41.41542        30.94626        -0.83222
H         41.38649        33.29065        -0.07573
H         40.16993        35.35136         0.37552
