         324
 CSIRO Nanostructure Databank - Neutral Graphene Oxide Data Set
C          2.18300         3.82570        -3.21276
C          1.11332         4.56022        -3.70171
C          1.84373         6.53015        -2.44399
C          0.93508         5.89373        -3.31417
C          1.58543         7.85378        -1.90277
C          0.28704         8.40547        -1.98874
C          0.93048        10.06519        -0.37974
C         -0.06533         9.46306        -1.16933
C          0.74541        12.23414         0.58901
C         -0.40680        12.98636         0.77078
C          0.88710        15.02077         0.69444
C         -0.34572        14.37878         0.79215
C          0.91400        16.47979         0.74523
C         -0.26758        17.25713         0.70227
C          0.99971        19.33292         0.96621
C         -0.22360        18.63432         0.82663
C          1.02148        20.77558         1.04679
C         -0.12742        21.56822         1.03795
C          1.16103        23.65675         1.22042
C         -0.06284        22.96241         1.19016
C          1.21187        25.10920         1.54945
C          0.00779        25.96881         1.45050
C          1.35111        28.01230         1.12312
C          0.09242        27.29986         1.20572
C          1.42519        29.35132         0.79488
C          4.25106         3.71978        -1.88238
C          3.14226         4.44228        -2.36695
C          3.99170         6.46807        -1.19875
C          2.99506         5.81984        -2.00177
C          3.81872         7.82683        -0.83597
C          2.58692         8.51337        -1.12841
C          3.28280        10.48062         0.42442
C          2.28274         9.74275        -0.46467
C          3.28346        12.04334         0.38042
C          2.06111        12.79904         0.47364
C          3.35250        14.90120         0.67332
C          2.09983        14.24003         0.58795
C          3.36496        16.34047         0.99839
C          2.14457        17.15134         0.88209
C          3.49375        19.22049         0.85247
C          2.20894        18.56481         0.97917
C          3.57887        20.68956         1.01660
C          2.31468        21.47184         1.17932
C          3.63042        23.57147         0.79345
C          2.36991        22.94105         1.07477
C          3.66548        25.06172         0.80468
C          2.54564        25.78166         1.50326
C          3.91633        27.98042         1.27067
C          2.59045        27.28486         1.45951
C          3.88387        29.36118         0.74902
C          2.67155        30.01548         0.61409
C          6.43997         3.63586        -0.82560
C          5.27063         4.35892        -1.15266
C          6.26492         6.40020        -0.15068
C          5.17969         5.75440        -0.81195
C          6.04924         7.79370         0.25734
C          4.83900         8.50413        -0.09405
C          5.77787        10.62645         0.64640
C          4.65670         9.86942         0.25571
C          5.77860        12.05832         0.63243
C          4.51611        12.75153         0.48180
C          5.85306        14.88107         0.61231
C          4.56632        14.18704         0.58725
C          5.91660        16.30591         0.60426
C          4.68958        17.06815         0.89709
C          5.82575        19.04796        -0.11239
C          4.64934        18.50584         0.65152
C          5.79888        20.57867        -0.24517
C          4.89998        21.38049         0.70016
C          5.93228        23.57299        -0.16360
C          4.75056        22.86024         0.37744
C          6.15222        24.99774         0.18292
C          4.95574        25.78134         0.57037
C          6.34433        27.85227         0.45903
C          5.20600        27.15138         1.18375
C          6.32285        29.30045         0.42399
C          5.14318        30.00134         0.49920
C          8.80871         3.45963        -0.38447
C          7.60946         4.29962        -0.45126
C          8.79508         6.35531         0.23504
C          7.53926         5.71016        -0.10538
C          8.96247         7.45054         1.15472
C          6.93019         8.51977         1.07805
C          8.08337        10.70112         1.46835
C          6.92680         9.93762         1.11527
C          8.22534        12.02222         1.05933
C          7.01826        12.73558         0.73994
C          8.34103        14.87011         0.69063
C          7.07994        14.17310         0.64459
C          8.36369        16.28509         0.52740
C          7.13234        16.98854         0.48935
C          8.35419        19.03338        -0.30707
C          7.15345        18.50786         0.46627
C          8.33006        20.46909        -0.79037
C          7.04701        21.26110        -0.70428
C          8.45728        23.40372        -0.72741
C          7.14135        22.76689        -0.65683
C          8.42124        24.88993        -0.82450
C          7.31450        25.64793        -0.15614
C          8.57379        27.81303        -0.63607
C          7.38606        27.10873        -0.07247
C          8.70425        29.31398        -0.38424
C          7.61275        30.07036         0.33935
C         11.35804         3.39844        -0.78423
C         10.01817         3.90296        -0.88238
C         11.27838         6.31520        -0.02643
C          9.97364         5.95449        -0.42435
C         11.42802         7.48953         0.91011
C         10.14128         8.16921         1.24721
C         11.06519        10.45015         0.98679
C         10.14796         9.58824         1.53164
C         10.88140        11.93279         0.77882
C          9.55255        12.68095         0.82066
C         10.81490        14.86465         0.87428
C          9.59071        14.16981         0.84102
C         10.84320        16.30213         0.64791
C          9.62313        16.99734         0.41487
C         10.85612        19.00799        -0.32634
C          9.64947        18.35942        -0.01369
C         10.84533        20.38772        -0.93009
C          9.60534        21.21252        -0.84067
C         10.90298        23.30470        -1.30455
C          9.62601        22.62211        -0.92648
C         10.93957        24.82196        -1.40301
C          9.69225        25.62259        -1.17061
C         11.05451        27.69580        -0.92679
C          9.83004        27.06056        -0.84495
C         11.16627        29.13085        -0.67001
C         10.04367        29.87341        -0.31101
C         13.80243         3.57422        -0.77122
C         12.49670         4.22005        -0.73387
C         13.70879         6.33515        -0.05351
C         12.43948         5.62815        -0.38979
C         13.66661         7.83243         0.02227
C         12.45948         8.41636         0.34434
C         13.56763        10.68775         0.41921
C         12.26826         9.85508         0.35609
C         13.40286        12.01148         1.09011
C         12.11467        12.75240         0.95616
C         13.31531        14.90694         1.31114
C         12.07084        14.12902         1.03096
C         13.32527        16.41771         1.03304
C         12.06481        17.03984         0.53884
C         13.38961        19.00183        -0.25219
C         12.07493        18.34423         0.00492
C         13.45226        20.39771        -0.80784
C         12.16682        21.11431        -1.12190
C         13.39156        23.29189        -1.16919
C         12.19117        22.59872        -1.13105
C         13.41420        24.75676        -1.24619
C         12.23431        25.51054        -1.24233
C         13.51119        27.61212        -1.29608
C         12.28451        26.94002        -1.15643
C         13.58686        29.06078        -1.15539
C         12.42530        29.76658        -0.75298
C         16.24415         3.38333        -0.50313
C         15.02353         4.19582        -0.64047
C         16.19947         6.56093        -0.30230
C         15.02368         5.65465        -0.27878
C         16.12023         7.88502         0.11829
C         14.87653         8.59947         0.12783
C         16.08320        10.71695         0.62435
C         14.85965         9.97291         0.44153
C         15.93672        12.12056         0.79738
C         14.69600        12.77191         1.26376
C         15.81501        14.97878         1.26815
C         14.63313        14.24354         1.29080
C         15.83448        16.41733         1.04610
C         14.62882        17.08026         0.82220
C         15.87762        19.10194        -0.04986
C         14.59688        18.56250         0.56844
C         15.93265        20.55450        -0.34242
C         14.68743        21.22270        -0.65963
C         15.91203        23.33726        -1.00978
C         14.64875        22.56840        -0.97862
C         15.82976        24.69462        -1.60756
C         14.65391        25.45639        -1.41320
C         15.94853        27.54665        -1.85312
C         14.71613        26.87964        -1.55784
C         16.00327        29.07473        -1.92954
C         14.77351        29.73282        -1.38841
C         18.83998         3.42480        -0.47380
C         17.49396         3.85315        -0.81500
C         18.66227         6.48590        -0.04225
C         17.48979         6.04321        -0.60837
C         18.61777         7.73536         0.74116
C         17.30901         8.53046         0.69170
C         18.62458        10.56870         1.01937
C         17.36332        10.01362         0.74653
C         18.90223        11.94345         0.78676
C         17.01476        13.00270         0.61542
C         18.37661        14.95160         1.36846
C         17.07205        14.28584         1.13322
C         18.35759        16.40586         1.09046
C         17.12460        17.05605         0.87451
C         18.40677        19.18225         0.36136
C         17.16783        18.39385         0.25490
C         18.40104        20.56013         0.04651
C         17.16309        21.19600        -0.37942
C         18.57828        23.20264        -0.95749
C         17.21987        22.63186        -0.71468
C         18.79639        24.35084        -1.72329
C         16.90449        25.35097        -2.17810
C         18.44537        27.24009        -2.37762
C         17.07953        26.75696        -2.18332
C         18.48443        29.37977        -1.75630
C         17.24367        29.64662        -1.24924
C         19.89902         4.28790        -0.32898
C         21.06441         6.40917         0.21514
C         19.89964         5.73836        -0.14118
C         21.05771         7.76738         0.68426
C         19.89493         8.42699         0.99119
C         21.00699        10.59490         1.88457
C         19.74764         9.77458         1.69974
C         21.01031        11.95584         1.90316
C         19.89212        12.70675         1.37201
C         20.91572        15.03346         1.15700
C         19.73760        14.20463         1.44323
C         20.83117        16.39028         1.03126
C         19.58951        17.10932         1.02296
C         20.73679        19.33143         1.06055
C         19.58492        18.54532         0.82880
C         20.72924        20.69110         0.79231
C         19.59351        21.32749         0.25298
C         20.80615        23.54786        -0.07607
C         19.67041        22.71012        -0.20834
C         20.82786        24.84384        -0.59292
C         19.81061        25.29253        -1.46989
C         20.83333        27.51928        -1.85722
C         19.67467        26.67626        -1.96892
C         20.87369        28.88046        -1.51139
C         19.78483        29.71889        -1.26718
O          3.31080        27.87546         2.60454
O          3.12649        21.02077         2.38376
O         18.09193        12.58204        -0.15902
O         10.85105        23.99791        -2.60203
O          3.93151        25.72083        -0.48490
O          9.05697        10.07869         2.24333
O         17.70637         7.76993         1.91357
O          8.20859        19.33197        -1.72230
O         17.51168         5.03885        -1.57815
O         14.41826         5.75346         1.10162
O         13.67999        19.22081        -1.65993
O         11.47352        20.51223        -2.25888
O          8.29006        28.79742        -1.68956
O         10.15101        12.21185        -0.46623
O          4.13947        16.67146         2.20574
O          7.86536         7.88157         1.88513
O         18.53790        28.53766        -2.91274
O         13.15910        15.87730         2.39953
O          9.89794         5.14822        -1.56313
O          2.06243        25.27510         2.77204
O         16.53424        23.44390         0.33971
O          6.18490        23.36556        -1.59554
O          8.67088        25.39388        -2.19178
O          0.48640        10.87460         0.66468
O         12.79904        10.56070        -0.80444
O         14.03296        12.07708         2.39738
O          5.95514        20.92846        -1.63578
O         17.91002        24.59268        -2.77846
O         16.50888        18.31804        -1.09398
O         19.00124        14.60741         2.65737
O         19.32262         9.50014         3.06462
H         18.56690         8.85959         3.01082
O         14.48189        19.21510         1.87307
H         14.04889        18.59463         2.49759
O         11.91742         6.98353         2.19398
H         12.77370         6.52053         2.05106
O          7.33002        18.99582         1.81496
H          6.56480        18.70504         2.35586
O          5.66631        18.45688        -1.41984
H          6.03052        19.10742        -2.07223
O          5.68436        26.92075         2.53385
H          4.92123        27.10588         3.13620
O          2.92177        10.15244         1.80612
H          1.96406        10.35207         1.91245
O          8.05365        30.36579         1.68133
H          7.85216        29.59666         2.25350
O          5.66833        21.37904         1.94588
H          5.00685        21.47998         2.67299
O         16.05578        29.42579        -3.34365
H         16.93595        29.12358        -3.67451
H          2.31154         2.77009        -3.49069
H          0.38704         4.09202        -4.38049
H          0.06794         6.44144        -3.70634
H         -0.48682         7.91934        -2.59623
H         -1.10494         9.80544        -1.09281
H         -1.36490        12.46517         0.88858
H         -1.27566        14.94523         0.91606
H         -1.24806        16.78121         0.57446
H         -1.17022        19.18972         0.79768
H         -1.12105        21.10589         0.96647
H         -1.00520        23.51934         1.27431
H         -0.98345        25.49860         1.51816
H         -0.82972        27.88767         1.08158
H          0.49779        29.91114         0.60490
H          4.36133         2.65610        -2.13967
H          2.66611        31.06515         0.28692
H          6.47961         2.56127        -1.05652
H          5.15591        31.09370         0.36582
H          8.69479         2.42894        -0.01627
H          7.44382        31.05394        -0.16885
H         11.50394         2.30942        -0.70982
H         10.16536        30.89964         0.06467
H         13.79555         2.48347        -0.92447
H         12.48748        30.85171        -0.58523
H         16.12988         2.38710        -0.04873
H         14.80025        30.82585        -1.26230
H         19.03241         2.34743        -0.34710
H         17.13357        30.29330        -0.36757
H         20.88198         3.81898        -0.15192
H         22.02838         5.88086         0.17838
H         22.02757         8.24706         0.88454
H         21.89535        10.05410         2.24269
H         21.90960        12.50012         2.22856
H         21.88343        14.53189         1.00974
H         21.75524        16.95219         0.83436
H         21.64704        18.87024         1.46604
H         21.64161        21.27338         0.97881
H         21.66268        23.21246         0.52462
H         21.66830        25.50408        -0.33737
H         21.80337        26.99886        -1.81544
H         21.86989        29.27410        -1.25299
H         19.92845        30.64025        -0.68518
