         252
 CSIRO Nanostructure Databank - Neutral Graphene Oxide Data Set
C         31.09181        31.82842        -2.52283
C         31.01612        33.07216        -2.52890
C         30.99701        36.24376        -1.95383
C         30.88012        37.42850        -1.46824
C         30.77005        40.45339         0.15482
C         30.67774        41.61359         0.54829
C         33.10307        28.92964        -1.16989
C         32.18166        29.57697        -1.68631
C         33.28346        31.67530        -1.63856
C         32.10712        30.98704        -1.97088
C         33.41707        33.12203        -1.93102
C         32.15856        33.97265        -2.39958
C         33.18028        35.95622        -1.14955
C         32.06443        35.37617        -1.96163
C         33.04803        37.35075        -0.56981
C         31.78337        38.17230        -0.73661
C         32.87549        39.71292         0.76840
C         31.73489        39.38344         0.02507
C         32.87800        41.98185         1.32274
C         31.43502        42.65874         1.32919
C         32.78509        44.41621         0.23952
C         31.73076        43.95195         0.66804
C         35.50746        27.49719         0.42719
C         35.28441        28.82567         0.18108
C         34.51886        29.44007        -0.95653
C         35.60232        31.67170        -0.42877
C         34.26255        30.98615        -0.66259
C         35.76651        33.12555        -0.72551
C         34.61303        33.86736        -1.39473
C         35.61137        35.99370        -0.60346
C         34.52445        35.30689        -1.12655
C         35.58113        37.48773        -0.70253
C         34.29326        38.10507        -0.30397
C         35.32882        40.11477         0.85947
C         34.19099        39.24745         0.46046
C         35.20299        41.53682         0.30261
C         34.04879        42.45165         0.82421
C         35.23986        44.29686        -0.49512
C         34.19701        43.97307         0.53327
C         35.50263        45.51227        -1.05035
C         37.78619        27.33850         0.67413
C         36.43566        26.77431         0.97114
C         37.79575        28.86545         0.56756
C         36.45626        29.61008         0.78995
C         37.76479        31.70664         0.80944
C         36.57043        31.01327         0.25418
C         37.74070        33.19166         0.85380
C         36.68124        33.92512         0.11069
C         37.63892        35.94512         1.13091
C         36.68578        35.30660         0.08307
C         37.76682        37.45770         1.27718
C         36.60120        38.13946         1.58804
C         37.75501        40.39770         1.53106
C         36.48727        39.58286         1.35340
C         37.67442        41.68935         0.75937
C         36.53379        42.25545         0.30392
C         37.74931        44.46723        -0.23750
C         36.57018        43.52675        -0.52432
C         37.76516        45.78790        -0.71936
C         36.54981        46.19136        -1.39175
C         40.25482        24.76729         1.86052
C         39.21011        25.37304         1.53923
C         40.26466        27.40547         0.99089
C         39.04740        26.71626         1.06768
C         40.29578        28.85786         0.86338
C         39.06942        29.58418         0.81700
C         40.27646        31.72243         1.00584
C         39.06628        30.99293         0.88533
C         40.26051        33.19051         1.01892
C         39.03553        33.88907         0.96263
C         40.16343        35.99336         1.15746
C         38.98207        35.29011         0.98591
C         40.36896        37.44941         1.41973
C         39.06116        38.19256         1.70817
C         40.18785        40.25047         0.69980
C         39.03756        39.61716         1.19032
C         40.19842        41.68450         0.61422
C         38.95728        42.43615         0.79719
C         40.20912        44.67613         0.32928
C         38.91195        43.93785         0.44873
C         40.21491        46.04882        -0.20916
C         38.96340        46.60336        -0.62256
C         40.18586        48.68041        -0.88515
C         39.14776        47.95864        -0.93737
C         42.84831        24.78973         2.01732
C         41.58766        25.23981         1.71024
C         42.85543        27.37772         0.86876
C         41.55067        26.63463         1.06554
C         42.81482        28.87858         0.71276
C         41.51887        29.59696         0.93731
C         42.76840        31.77858         1.26344
C         41.50543        31.00466         1.06382
C         42.76826        33.28429         1.15759
C         41.45316        33.95464         1.14027
C         42.30428        36.43609         1.93430
C         41.37151        35.33271         1.38823
C         42.71546        37.24536         0.65622
C         41.43456        38.09958         0.52724
C         42.68997        40.15755         0.04218
C         41.43602        39.47147         0.42432
C         42.62268        41.62608        -0.28604
C         41.38553        42.39374         0.09021
C         42.71308        44.63482        -0.04809
C         41.48041        43.88605         0.27140
C         42.70339        46.02072        -0.04785
C         41.44593        46.76348        -0.23367
C         42.74384        48.77539        -0.33921
C         41.44596        48.19055        -0.50395
C         43.89832        25.49297         1.72882
C         45.39393        27.38579         0.70605
C         44.16705        26.75347         1.31366
C         45.40928        28.91109         0.97641
C         44.11590        29.62381         0.72480
C         45.34653        31.88642         0.92132
C         44.09398        31.07532         1.12280
C         45.34842        33.41020         0.75779
C         43.93922        34.02410         0.59567
C         45.14425        35.96883        -0.32726
C         43.90967        35.27405         0.02897
C         45.16902        37.31480        -0.18734
C         44.06574        38.06930         0.58173
C         45.11028        40.16144        -0.61570
C         43.88908        39.49521         0.04307
C         45.18156        41.67196        -0.34355
C         43.90486        42.42763        -0.30516
C         45.24206        44.56626        -0.11045
C         43.94809        43.84342         0.29858
C         45.16407        46.06050         0.34248
C         43.98956        46.74256         0.12498
C         43.75751        48.14953         0.02907
C         47.87749        27.24512         0.59158
C         46.76645        26.86713         1.00096
C         48.38522        28.58325         0.44329
C         46.51832        29.71688         1.01672
C         47.40650        31.50559        -0.46758
C         46.50327        31.07039         0.46664
C         47.07281        32.83530        -0.97402
C         46.23631        33.75624        -0.42676
C         47.64224        35.86562        -0.77729
C         46.27172        35.17801        -0.98164
C         47.66759        37.19659        -0.48066
C         46.40609        37.99996        -0.74427
C         47.61715        40.11598        -0.13348
C         46.44991        39.46551        -0.38674
C         47.65417        41.59211         0.08084
C         46.33678        42.25130         0.47084
C         47.59368        44.38216         0.83128
C         46.44487        43.77620         0.39141
C         47.56464        45.83886         0.83201
C         46.48259        46.44680         0.65169
C         49.87779        28.74349        -1.51173
C         48.82656        29.22476        -0.67972
C         49.92831        31.44728        -1.35211
C         48.52426        30.70676        -1.21169
C         50.11106        32.94467        -1.33911
C         48.94978        33.85131        -1.42566
C         50.18163        35.82155        -0.72500
C         48.90816        35.13102        -0.92193
C         50.20240        37.15892        -0.41352
C         48.93552        37.88810        -0.13018
C         50.18729        40.17302         0.11628
C         48.91447        39.38674         0.06423
C         50.19876        41.49804         0.54391
C         48.91178        42.26845         0.52124
C         50.10467        44.18553         1.34272
C         48.73395        43.56119         1.36810
C         50.96192        29.18599        -1.92761
C         52.33353        31.41117        -1.85934
C         51.07951        30.66454        -2.19703
C         52.46277        32.63126        -1.72898
C         51.42421        33.66218        -1.61547
C         52.59917        35.91009        -0.80719
C         51.44923        35.09609        -1.19294
C         52.63059        37.06060        -0.35697
C         51.46938        37.96973        -0.46531
C         52.61117        40.22201         0.28063
C         51.46201        39.44304        -0.17348
C         52.55620        41.36355         0.78554
C         51.42698        42.20877         0.88859
C         51.16629        43.52908         1.33357
O         44.71814        42.38198        -1.51877
O         37.85836        28.03357        -0.61852
O         40.99474        44.43109         1.54942
O         32.80430        36.17364         0.29684
O         35.81795        33.48405        -2.14018
O         48.43265        42.39380        -0.85927
O         47.85336        33.27750        -2.05831
O         47.79630        29.37273         1.45353
O         32.78602        40.66127         1.79551
O         36.54684        38.12144        -1.10970
O         44.96357        31.39314         2.24849
O         51.50895        38.91378        -1.54679
O         42.87045        32.61954         2.47267
O         48.87059        38.47170         1.23738
O         42.23436        26.66049        -0.24670
O         50.27883        32.10928        -0.12041
O         38.78062        43.47144         1.82952
O         33.19819        33.57848        -3.31079
O         42.78890        36.08783        -0.30962
O         37.37668        32.42391         2.05165
O         41.29232        37.31884         2.61098
O         41.67487        42.00594        -1.32451
O         43.45416        29.34036        -0.55339
O         51.35904        34.70236        -2.59708
O         50.73869        30.90341        -3.54378
H         51.39735        30.47584        -4.13002
O         35.27647        29.31572        -2.13822
H         35.74633        28.45466        -2.14234
O         47.99552        30.52982        -2.52080
H         48.72214        30.30160        -3.14268
O         45.94678        33.97297         1.94861
H         45.59463        33.46069         2.71055
O         48.41765        43.14534         2.70408
H         48.32724        43.94237         3.26866
O         38.94866        38.27317         3.17409
H         39.86015        38.21682         3.54374
O         45.24536        27.25390        -0.71609
H         44.42550        27.72847        -0.99852
O         35.47765        37.47301         1.91359
H         35.72341        36.54596         2.17700
O         45.99116        35.13989        -2.39197
H         46.06311        36.07239        -2.71514
O         44.57243        38.28059         1.91470
H         44.65355        37.41193         2.37047
O         46.04742        41.86749         1.83092
H         46.75967        42.22210         2.41720
O         46.31806        37.90403        -2.20892
H         45.67645        38.59373        -2.52045
O         36.80434        43.06891        -1.89910
H         36.70477        43.85102        -2.48727
O         45.30711        44.70741        -1.53699
H         46.22196        44.95334        -1.78688
O         37.08219        35.44666         2.40473
H         37.69137        35.71946         3.12467
O         33.61854        31.03623         0.63559
H         32.79058        30.50880         0.58316
O         37.86981        40.75174         2.93440
H         38.12711        39.92650         3.41622
O         44.81327        39.99722        -2.03313
H         44.55266        40.89023        -2.38265
O         34.62922        44.59543         1.74470
H         33.92680        44.49665         2.42100
O         43.31810        36.05810         2.79598
H         42.96346        35.45767         3.48340
O         36.31016        29.70572         2.21586
H         35.60086        30.35347         2.41347
O         34.82413        41.32999        -1.08938
H         35.47654        41.78738        -1.67505
O         30.92264        42.81290         2.62139
H         30.68128        41.93560         2.98140
O         43.95811        43.72627         1.74070
H         43.08353        43.98810         2.10328
