         429
 CSIRO Nanostructure Databank - Neutral Graphene Oxide Data Set
C          1.20810         1.99773        -0.75475
C          1.20392         3.40746        -0.90614
C          2.29500         1.14826        -0.56542
C          2.32918         4.26018        -0.86689
C          1.09815         6.38768        -0.40440
C          1.10254         7.73259        -0.03713
C          2.28404         5.64492        -0.48792
C          2.31967         8.46335         0.12417
C          1.12975        10.52850         0.81713
C          1.15848        11.85481         1.20028
C          2.31573         9.89041         0.38809
C          2.33690        12.60733         1.02529
C          1.27392        15.84918         0.69007
C          1.35363        17.06383         0.03261
C          2.38077        14.97613         0.69685
C          2.55659        17.47876        -0.58715
C          2.63248        18.90492        -0.87403
C          3.62784         1.56226        -0.86631
C          3.63408         3.70792        -1.11231
C          4.84052         1.22121        -0.30081
C          4.84116         4.24779        -0.69435
C          3.53874         6.28618         0.08219
C          3.54704         7.79156        -0.01542
C          4.84145         5.64882        -0.32081
C          4.77707         8.51280        -0.03409
C          3.52444        10.63941         0.29563
C          3.50911        12.05452         0.50112
C          4.77474         9.94085         0.08305
C          4.73091        12.85174         0.12386
C          3.55264        15.26250        -0.01151
C          3.63514        16.53965        -0.64267
C          4.74632        14.34135        -0.12319
C          4.90807        16.91186        -1.20234
C          3.74426        19.67423        -1.06521
C          5.03060        19.07449        -1.33644
C          6.03966         2.02109        -0.44426
C          6.05915         3.46229        -0.63152
C          7.26437         1.36962        -0.22610
C          7.27616         4.16915        -0.51003
C          6.01287         6.35822        -0.32713
C          6.01395         7.79868        -0.15481
C          7.28931         5.66291        -0.76369
C          7.23289         8.50443        -0.16665
C          6.00628        10.64631         0.09920
C          6.04095        12.13401         0.47360
C          7.20177         9.92693        -0.07558
C          7.28747        12.84716        -0.03047
C          6.09813        15.07355        -0.01177
C          6.12084        16.37800        -0.79974
C          7.28358        14.19484        -0.34126
C          7.33664        17.11658        -0.97918
C          6.26927        19.42074        -0.86712
C          7.42429        18.54688        -0.97314
C          8.48932         2.05864        -0.20283
C          8.50188         3.48757        -0.31204
C          9.72401         1.35467        -0.08620
C          9.74821         4.18811        -0.18011
C          8.51736         6.35412        -0.22393
C          8.49619         7.75966        -0.09186
C          9.72927         5.64681        -0.07288
C          9.69994         8.42974         0.23742
C          8.47655        10.64697        -0.18291
C          8.50932        12.11371        -0.08735
C          9.75102         9.89015         0.03085
C          9.76414        12.75952        -0.20826
C          8.52383        14.81682        -0.83348
C          8.58315        16.34756        -1.09372
C          9.80679        14.15575        -0.55646
C          9.88902        16.99629        -0.97318
C          8.69614        19.15359        -0.90661
C          9.91708        18.42839        -0.89909
C         10.92573         2.02773        -0.03446
C         10.94699         3.46218        -0.03294
C         12.20908         1.22988        -0.07477
C         12.20728         4.14382         0.21819
C         10.92379         6.34103         0.25581
C         10.90542         7.73093         0.45699
C         12.23673         5.64108         0.00498
C         12.12987         8.46837         0.97987
C         10.90101        10.67483         0.61670
C         10.97713        12.05721         0.03880
C         12.19693         9.92340         0.57838
C         12.22860        12.66531        -0.14668
C         11.01554        14.81247        -0.76481
C         11.08131        16.24511        -0.93270
C         12.26106        14.01641        -0.75129
C         12.35157        16.93094        -0.90026
C         11.15921        19.08981        -0.84315
C         12.37307        18.36771        -0.86459
C         13.44421         1.99283         0.35780
C         13.36570         3.44604         0.46491
C         14.61448         1.31165         0.50346
C         14.60814         4.15082         0.96500
C         13.44549         6.34833         0.56391
C         13.43922         7.75040         0.73273
C         14.63995         5.63874         0.71832
C         14.64369         8.44838         0.92263
C         13.38600        10.61079         0.62939
C         13.42490        11.99884         0.23203
C         14.55770         9.91030         1.32303
C         14.70092        12.67732         0.11551
C         13.59372        14.74719        -0.82517
C         13.58910        16.23719        -0.85434
C         14.75833        14.03773        -0.29081
C         14.81810        16.93209        -0.86736
C         13.61684        19.05007        -0.82193
C         14.84144        18.37854        -0.86849
C         15.92117         1.97806         0.86921
C         15.86332         3.45335         0.43128
C         17.15983         1.35812         0.26886
C         17.13837         4.18752         0.77502
C         15.86217         6.32565         0.91406
C         15.86987         7.74321         0.97204
C         17.10827         5.58456         0.96984
C         17.12978         8.46120         1.08004
C         15.91873        10.72427         1.19898
C         15.89104        11.94071         0.32746
C         17.15054         9.86449         0.99992
C         17.17915        12.47291        -0.24571
C         16.00574        14.78511        -0.17329
C         16.04538        16.14543        -0.77088
C         17.29041        13.98723        -0.14949
C         17.20519        16.55438        -1.35523
C         16.07148        19.15510        -0.74523
C         17.27063        18.73445        -1.28073
C         18.35453         2.05924         0.31924
C         18.35437         3.47774         0.71602
C         19.59162         1.46125        -0.05917
C         19.57937         4.16942         0.87498
C         18.33531         6.29494         1.08594
C         18.35339         7.72933         1.14236
C         19.55055         5.55842         1.03877
C         19.60339         8.43498         1.31386
C         18.40457        10.55133         0.83001
C         18.42358        11.83647         0.30382
C         19.64192         9.87489         1.19725
C         19.70167        12.49372        -0.00344
C         18.55011        14.57795        -0.63975
C         18.54482        15.89323        -1.37206
C         19.75208        13.92705        -0.40299
C         19.70217        16.77353        -0.78198
C         18.61745        19.14250        -1.04145
C         19.74845        18.28618        -1.08560
C         20.84350         2.07424         0.20072
C         20.88213         3.39330         0.95649
C         22.04563         1.44533        -0.06076
C         22.12343         4.18488         0.57906
C         20.78921         6.33729         0.87943
C         20.81143         7.73828         1.31023
C         22.06331         5.65912         0.55579
C         22.06194         8.39179         1.70311
C         20.84995        10.56829         1.25477
C         20.94838        11.84786         0.53206
C         22.06314         9.92267         1.78484
C         22.14125        12.71426         0.72024
C         21.01199        14.60435        -0.49916
C         21.05844        16.02149        -1.07093
C         22.20549        14.01713        -0.01370
C         22.25192        16.80806        -0.58187
C         21.00586        18.90179        -1.00592
C         22.22843        18.21382        -0.73399
C         23.34461         2.03184         0.42835
C         23.31817         3.54727         0.36734
C         24.55842         1.45889        -0.24004
C         24.56508         4.27084         0.23606
C         23.32990         6.45466         0.67990
C         23.38888         7.63271         1.64363
C         24.60275         5.73381         0.43276
C         24.63566         8.47389         1.37105
C         23.41262        10.66070         1.90656
C         23.36206        12.06733         1.28729
C         24.64419         9.85962         1.48154
C         24.67278        12.65649         0.88882
C         23.42240        14.73540         0.02868
C         23.45097        16.14493        -0.23813
C         24.69478        14.04487         0.33444
C         24.66906        16.88681        -0.09467
C         23.43776        18.94028        -0.56305
C         24.63430        18.29442        -0.27368
C         25.73551         2.18258        -0.34210
C         25.76695         3.60029         0.03348
C         26.93110         1.59861        -0.85268
C         27.02286         4.29740         0.12165
C         25.87154         6.38329         0.81177
C         25.87426         7.77021         1.15053
C         27.06703         5.68373         0.58899
C         27.12576         8.45518         1.26997
C         25.89723        10.55300         1.48585
C         25.89140        12.04205         1.50815
C         27.11655         9.86861         1.46005
C         27.17010        12.80255         1.37106
C         25.95026        14.82156         0.45928
C         25.92091        16.21446         0.19184
C         27.15525        14.17495         0.80306
C         27.14583        16.93800         0.17414
C         25.86988        19.13722        -0.07387
C         27.15810        18.35255        -0.08399
C         28.14275         2.30943        -0.86239
C         28.19881         3.64372        -0.28795
C         29.32638         1.73851        -1.37960
C         29.45894         4.30324        -0.18695
C         28.30634         6.35556         0.77939
C         28.36251         7.72152         1.14391
C         29.55775         5.51745         0.69199
C         29.65178         8.36614         1.38366
C         28.38987        10.60281         1.73142
C         28.44868        12.06598         1.44260
C         29.69414         9.81915         1.79768
C         29.63174        12.75659         1.27933
C         28.39049        14.86188         0.69829
C         28.38225        16.24762         0.35356
C         29.63827        14.19005         0.96418
C         29.61606        16.94630         0.22223
C         28.34867        19.01373        -0.26297
C         29.60544        18.33639        -0.13510
C         30.54951         2.44363        -1.37129
C         30.60734         3.75442        -0.75231
C         31.73263         1.86561        -1.86769
C         31.85622         4.49115        -0.78173
C         30.77294         6.34472         0.41697
C         30.80883         7.62966         1.07129
C         31.90127         5.82342        -0.19062
C         32.14120         8.05783         1.39156
C         30.93665        10.66416         1.66186
C         30.90522        12.05572         1.38691
C         32.19994        10.11647         1.93208
C         32.12868        12.77911         1.30678
C         30.83714        14.90333         0.88449
C         30.84686        16.27510         0.46987
C         32.11549        14.29057         1.40939
C         32.07392        16.98496         0.29493
C         30.81182        19.01722        -0.30741
C         32.05154        18.35626        -0.11701
C         32.96223         2.56887        -1.83865
C         32.97715         3.93969        -1.37669
C         34.17235         1.93417        -2.16099
C         34.20099         4.77484        -1.65983
C         33.16299         6.55967        -0.20145
C         33.26442         7.73200         0.65729
C         34.28095         6.01273        -0.79843
C         34.55119         8.44425         0.87071
C         33.42182        10.72170         1.59921
C         33.36541        12.11351         1.34481
C         34.66181         9.92545         1.42199
C         34.63144        12.87938         1.40158
C         33.38197        14.95956         0.91026
C         33.33890        16.33861         0.50994
C         34.62568        14.30709         1.03038
C         34.53586        17.05357         0.31143
C         33.26658        19.04544        -0.33610
C         34.50503        18.41144        -0.13861
C         35.43304         2.57601        -1.95970
C         35.48739         3.97031        -1.64167
C         36.63382         1.84693        -2.05567
C         36.72069         4.60128        -1.47190
C         35.53380         6.79088        -0.86570
C         35.66927         8.05025        -0.04388
C         36.78666         6.07588        -1.28715
C         37.01302         8.63631         0.19308
C         35.90335        10.66064         1.09892
C         35.94426        12.11145         1.32446
C         37.06224        10.00285         0.65729
C         37.16738        12.85560         0.97637
C         35.85955        14.97058         0.82048
C         35.85277        16.47630         0.76137
C         37.11600        14.28470         0.81662
C         37.03219        17.05918         0.03015
C         35.72299        19.09645        -0.42627
C         36.96083        18.42841        -0.41941
C         37.87676         2.45642        -1.80690
C         37.93550         3.85144        -1.51035
C         39.09007         1.68688        -1.84165
C         39.20918         4.45826        -1.21793
C         38.11598         6.69405        -0.93947
C         38.16443         7.99167        -0.22376
C         39.31714         5.83511        -0.88330
C         39.45631         8.60281        -0.04338
C         38.31658        10.70623         0.58283
C         38.34736        12.11549         0.78701
C         39.52539         9.98908         0.29514
C         39.64172        12.80447         0.81365
C         38.29858        14.99827         0.44181
C         38.21612        16.33255        -0.06068
C         39.61494        14.36444         0.60670
C         39.39996        16.96523        -0.68905
C         38.14196        19.09570        -0.83531
C         39.37238        18.42353        -0.92538
C         40.29587         2.26203        -1.55263
C         40.38523         3.65343        -1.21846
C         41.62600         4.24281        -0.87749
C         40.55932         6.41213        -0.55872
C         40.64132         7.84681        -0.26523
C         41.71173         5.58394        -0.55195
C         41.87944         8.51010        -0.18866
C         40.79673        10.64867         0.28577
C         40.87189        12.08654         0.47961
C         41.95137         9.87904         0.04987
C         42.03648        12.82378         0.31349
C         40.84656        14.96346         0.08807
C         40.77256        16.29080        -0.57712
C         42.01598        14.23022         0.10990
C         41.94467        17.16080        -0.66023
C         40.56713        19.09093        -1.24235
C         41.82508        18.46760        -1.07402
O         35.37226        12.56240         2.62465
O         22.52445        12.92722         2.13419
O         20.58960        11.68968        -0.88511
O         26.41487        12.72025         2.67556
O         23.95257         6.60323        -0.61881
O         21.85545         9.10543         2.97165
O          4.94129        17.92935        -2.16348
O         24.84424        12.82593        -0.54858
O          3.68805         2.54657        -1.88420
O         16.76243        14.57163         1.07834
O         28.96177        10.16746         3.01744
O         35.31587         8.11667        -1.47356
O          4.68923        13.38981        -1.23750
O         32.25564         8.85745         2.52975
O         37.54711         6.78308        -2.31127
O          2.27469        13.89508         1.56094
O         17.17056        17.65753        -2.21029
O          9.34327        10.22229        -1.32495
O         39.77757        13.74118         1.91663
O         13.00895        14.09870        -2.01444
O         21.24842         6.19140        -0.55757
O         39.96676        16.21426        -1.81378
O          8.47007        15.36538        -2.18653
O         14.21889         9.87368         2.70018
O         34.90568         8.73264         2.23798
O          3.43107         6.00264         1.54064
H          2.61599         6.44969         1.85634
O         36.01004        16.92865         2.17271
H         35.28442        16.51663         2.68955
O         15.76271         3.43505        -1.01474
H         15.65075         4.35827        -1.32582
O         18.76945        15.61551        -2.78403
H         18.44443        16.39967        -3.28191
O          6.10741        12.20326         1.93474
H          6.87255        11.66698         2.23411
O         23.43325         1.67577         1.87429
H         24.29864         2.00443         2.20104
O         25.91265        20.21000        -1.02307
H         25.93777        19.82143        -1.92131
O         16.09158        11.38966         2.48085
H         15.37672        10.96112         3.06265
O         23.57305         7.03567         2.95280
H         23.34767         7.72856         3.61544
O         14.59750         4.02797         2.42592
H         13.87655         4.59499         2.77320
O         11.97836         8.50229         2.44642
H         12.82192         8.96636         2.77496
O          6.26429        15.42626         1.39699
H          6.25200        14.59086         1.91666
O         16.11142         1.86185         2.30238
H         15.51360         2.51613         2.73704
O         34.03876         5.26093        -3.03798
H         34.76178         5.90137        -3.21467
O         23.64204        10.88127         3.31578
H         23.03073        11.59492         3.60553
O         32.09637        14.57244         2.85847
H         32.83824        14.07576         3.26668
O         10.58030        10.81658         2.04812
H         10.98677        10.02887         2.50406
O         21.30054        15.92450        -2.49561
H         20.54145        15.43521        -2.89812
O         21.04392         3.06601         2.37039
H         21.83151         2.46722         2.44096
O          7.36785         5.82889        -2.22472
H          6.60163         5.35607        -2.61388
O         17.15503        12.19747        -1.68579
H         17.45220        11.27499        -1.83453
O         19.48116        16.72205         0.64538
H         20.16290        17.27156         1.08577
O         29.75516         4.97903         2.05733
H         29.83100         5.74604         2.66527
O         12.07740         0.01161         0.66815
H         12.02549         0.23682         1.61933
O         12.42506         5.77708        -1.45775
H         11.60871         5.44658        -1.89156
H          0.21358         1.55264        -0.58917
H          0.21305         3.88003        -0.82124
H          2.11817         0.15099        -0.13604
H          0.14176         5.92151        -0.68206
H          0.14109         8.26068         0.00309
H          0.19697         9.96026         0.92295
H          0.27000        12.34249         1.62106
H          0.36827        15.56720         1.24210
H          0.49992        17.75611         0.06223
H          1.68630        19.44298        -0.69901
H          4.90401         0.33013         0.34193
H          3.65928        20.76904        -0.99353
H          7.27013         0.27728        -0.09527
H          6.39997        20.38078        -0.34648
H          9.71752         0.25523        -0.05776
H          8.74789        20.25179        -0.86315
H         12.36333         0.92099        -1.14797
H         11.18560        20.18798        -0.78910
H         14.59937         0.21505         0.39616
H         13.60890        20.14912        -0.77968
H         17.15083         0.30857        -0.06569
H         16.03419        20.08088        -0.15234
H         19.57878         0.44455        -0.48277
H         18.80232        20.20176        -0.79835
H         22.05994         0.46261        -0.55712
H         21.05388        19.99720        -1.10796
H         24.54691         0.39832        -0.53337
H         23.43458        20.03321        -0.68505
H         26.90579         0.56317        -1.22301
H         25.78532        19.62549         0.93973
H         29.29331         0.72364        -1.80312
H         28.34206        20.09141        -0.48256
H         31.71041         0.83762        -2.25896
H         30.80569        20.08022        -0.58924
H         34.16101         0.87762        -2.46718
H         33.23910        20.09170        -0.67439
H         36.59698         0.77587        -2.30383
H         35.67797        20.14440        -0.75763
H         39.02699         0.61749        -2.08979
H         38.09252        20.16681        -1.08235
H         41.21750         1.66226        -1.56494
H         42.53073         3.61799        -0.87141
H         42.69044         6.00501        -0.28592
H         42.81363         7.95848        -0.35796
H         42.93976        10.35732         0.06154
H         42.99433        12.31074         0.15140
H         42.95439        14.70377        -0.21290
H         42.92602        16.77148        -0.35505
H         40.52880        20.15985        -1.49680
H         42.73173        19.07893        -1.18906
