         344
 CSIRO Nanostructure Databank - Neutral Graphene Oxide Data Set
C          1.14848         3.38815         0.05982
C         -0.00802         4.07694         0.19920
C          1.06743         6.27804         0.01582
C         -0.07223         5.51901         0.07116
C          1.10389         7.73900         0.00638
C         -0.08784         8.47833         0.14947
C          1.07504        10.62678         0.09059
C         -0.08171         9.87665         0.27208
C          1.09874        12.06057         0.27199
C         -0.09107        12.76649         0.57908
C          1.12483        14.86534         0.69100
C         -0.08593        14.14155         0.71358
C          1.13057        16.32593         0.59186
C         -0.06938        17.03055         0.37827
C          1.17084        19.07775         0.02102
C         -0.04922        18.39642         0.13160
C          1.15027        20.55325        -0.17231
C          0.14451        21.17023        -1.03802
C          1.35458        23.30559        -1.00623
C          0.21220        22.50090        -1.33134
C          1.33818        24.73541        -1.54968
C          0.09179        25.48834        -1.14173
C          1.29848        27.61466        -0.88787
C          0.07866        26.82339        -0.96077
C          1.24219        29.02480        -0.69594
C          3.69650         3.44315        -0.07419
C          2.38978         4.11737        -0.38727
C          3.63696         6.32652         0.03867
C          2.36265         5.55619         0.08904
C          3.59256         7.79489        -0.14361
C          2.33324         8.44599        -0.11174
C          3.59576        10.63756        -0.21144
C          2.29252         9.91524        -0.45150
C          3.55842        12.13908        -0.35257
C          2.32262        12.78420         0.23776
C          3.64245        14.78853         0.99267
C          2.34061        14.15272         0.55182
C          3.59931        16.36154         1.09831
C          2.36326        17.01954         0.52529
C          3.68612        19.13577        -0.02434
C          2.38704        18.39119         0.21687
C          3.66210        20.57982         0.57196
C          2.40531        21.34741         0.12031
C          3.77082        23.35288        -0.46609
C          2.49535        22.70344        -0.46901
C          3.85714        24.78894        -0.82804
C          2.61827        25.52015        -1.23841
C          3.71218        27.68053        -0.51882
C          2.53985        26.96495        -0.89930
C          3.65496        29.10615        -0.37588
C          2.39208        29.75909        -0.51114
C          6.15444         3.47400        -0.09612
C          4.88502         4.14558        -0.10812
C          6.06917         6.30064        -0.36717
C          4.89855         5.59935        -0.20958
C          6.04258         7.76776        -0.72788
C          4.78500         8.50125        -0.32925
C          6.07543        10.65478        -0.32729
C          4.79448         9.94729        -0.29793
C          6.07607        12.11014        -0.21092
C          4.86102        12.82196        -0.01065
C          6.10954        14.85332         0.52433
C          4.87769        14.18606         0.34407
C          6.13451        16.27109         1.07560
C          4.89361        17.04660         0.71001
C          6.18599        19.13412         0.45161
C          4.92775        18.38249         0.42760
C          6.17633        20.57803         0.31289
C          4.95346        21.29241         0.21139
C          6.24219        23.41103        -0.36259
C          4.94368        22.66786        -0.12404
C          6.13551        24.86546         0.04322
C          4.99822        25.54880        -0.25049
C          6.05002        27.73562         0.21902
C          4.92283        27.00369        -0.17376
C          6.05958        29.16677         0.12090
C          4.84134        29.82864        -0.12088
C          8.60065         3.47745        -0.18004
C          7.34347         4.16756        -0.24416
C          8.52755         6.34189        -0.44208
C          7.33974         5.61643        -0.39093
C          8.52694         7.78210        -0.37100
C          7.31722         8.49303        -0.36981
C          8.55809        10.63270        -0.49596
C          7.27343         9.92363        -0.32315
C          8.55292        12.13692        -0.48257
C          7.30155        12.82478        -0.10821
C          8.59552        14.80115         0.84590
C          7.31855        14.17136         0.31254
C          8.59477        16.31118         0.72300
C          7.41922        17.00208         0.74113
C          8.65545        19.16056         0.53854
C          7.39588        18.45145         0.60353
C          8.65342        20.59506         0.48421
C          7.41722        21.29568         0.34130
C          8.60817        23.44925         0.43141
C          7.44513        22.72132         0.21533
C          8.61119        24.88504         0.44555
C          7.27485        25.51812         0.77999
C          8.56744        27.80119         0.62486
C          7.26311        27.04136         0.69264
C          8.53128        29.23949         0.26649
C          7.30080        29.88472         0.17647
C         11.03975         3.48703        -0.04066
C          9.79973         4.15224        -0.24788
C         10.94441         6.31177         0.25396
C          9.85267         5.62764        -0.58375
C         11.01629         7.78471        -0.05068
C          9.80728         8.48436        -0.25047
C         11.04300        10.59144        -0.08897
C          9.83274         9.90140        -0.29014
C         11.00963        12.06086         0.26038
C          9.88472        12.86969        -0.42037
C         11.06287        14.90742         0.20736
C          9.84577        14.20333         0.27223
C         11.09300        16.29647         0.33142
C          9.91761        17.02256         0.90840
C         11.10685        19.18215         0.38426
C          9.87397        18.47763         0.53849
C         11.10535        20.61597         0.45294
C          9.87738        21.29602         0.55969
C         11.11366        23.48701         0.44677
C          9.86559        22.76037         0.88004
C         11.07630        24.89009         0.27967
C          9.80301        25.60404         0.39842
C         10.98791        27.75924         0.16688
C          9.82737        27.05124         0.41601
C         10.98882        29.20798         0.14574
C          9.77431        29.91253         0.14339
C         13.48609         3.36638         0.38357
C         12.24279         4.17743         0.11197
C         13.48648         6.31674         0.27141
C         12.27295         5.59464         0.14616
C         13.48255         7.73160         0.25643
C         12.25645         8.46353         0.04966
C         13.52889        10.62030         0.07281
C         12.26515         9.89365         0.03936
C         13.52710        12.04594        -0.08042
C         12.31070        12.78171        -0.00652
C         13.53679        14.89696        -0.19723
C         12.30293        14.17080        -0.07173
C         13.54991        16.31295        -0.16910
C         12.24341        17.05214        -0.26205
C         13.54783        19.18647         0.06642
C         12.31947        18.49083         0.16642
C         13.54736        20.62441         0.15444
C         12.34238        21.32930         0.34343
C         13.54233        23.49571         0.15524
C         12.33070        22.78033         0.32095
C         13.51253        24.91962         0.07742
C         12.27287        25.59934         0.06218
C         13.51368        27.79752         0.13130
C         12.25251        27.06416        -0.27639
C         13.46660        29.21431         0.21200
C         12.24380        29.88783         0.13272
C         15.96240         3.45134         0.27702
C         14.76566         4.15173         0.27466
C         15.97248         6.27236         0.24099
C         14.75647         5.58197         0.28490
C         16.08514         7.73941         0.60513
C         14.69798         8.50165         0.71284
C         15.97598        10.61804        -0.05069
C         14.74491         9.92766         0.18903
C         15.95888        12.00442        -0.33255
C         14.75396        12.74409        -0.26420
C         15.96295        14.91696        -0.51611
C         14.75853        14.18246        -0.33048
C         15.97441        16.31222        -0.45984
C         14.75983        17.02596        -0.25006
C         16.00360        19.18104        -0.20669
C         14.77317        18.47733        -0.15232
C         15.98102        20.61374        -0.13727
C         14.78475        21.33142        -0.03479
C         15.97716        23.49865        -0.13491
C         14.79135        22.78248        -0.01526
C         15.99309        24.91537         0.27610
C         14.73809        25.67411         0.13572
C         15.98148        27.83759         0.60583
C         14.72666        27.07205         0.23294
C         15.96978        29.21340        -0.06119
C         14.74805        30.00505         0.42152
C         18.45345         3.43611         0.26949
C         17.20597         4.12943         0.21585
C         18.44279         6.23888        -0.00510
C         17.20149         5.55166         0.13898
C         18.44439         7.65465        -0.39826
C         17.13056         8.44310        -0.25524
C         18.44524        10.54623        -0.48719
C         17.21536         9.89780        -0.22298
C         18.48322        11.97521        -0.60925
C         17.19841        12.68026        -0.74902
C         18.49732        14.89680        -0.72039
C         17.20593        14.18853        -0.85240
C         18.49926        16.30331        -0.66298
C         17.21061        17.06053        -0.91010
C         18.47723        19.16161        -0.41025
C         17.24939        18.49665        -0.44018
C         18.51613        20.63435        -0.04973
C         17.23453        21.32726        -0.44127
C         18.52706        23.62050        -0.65984
C         17.22396        22.83396        -0.52853
C         18.56254        24.95662         0.04997
C         17.30319        25.63307         0.42322
C         18.47136        27.79727         0.37394
C         17.29562        27.11266         0.38078
C         18.46731        29.26409         0.27489
C         17.26896        29.94674         0.13973
C         19.64335         4.12538         0.25449
C         20.88927         6.28117        -0.02255
C         19.66009         5.54506         0.08827
C         20.90369         7.64169        -0.22417
C         19.70561         8.39502        -0.42282
C         20.89678        10.56060        -0.68436
C         19.68794         9.80835        -0.55306
C         20.90479        11.93239        -0.72170
C         19.68922        12.68655        -0.68431
C         20.91356        14.87775        -0.56935
C         19.70505        14.15069        -0.67807
C         20.92225        16.26190        -0.52133
C         19.72235        17.01032        -0.58614
C         20.91512        19.21647        -0.64205
C         19.71587        18.46747        -0.55368
C         20.94234        20.60618        -0.63284
C         19.77092        21.38560        -0.46146
C         20.98753        23.55944        -0.39945
C         19.78363        22.79132        -0.44295
C         20.97306        24.92207        -0.19716
C         19.75525        25.63810         0.09097
C         20.98561        27.86772         0.27623
C         19.77585        27.05884         0.65051
C         20.92884        29.23206         0.15289
C         19.71244        29.94625         0.21662
O         17.12806        21.97329        -1.74206
O          3.64873        25.16661        -2.24933
O         16.64095        25.09545         1.64387
O         17.50224         7.87105        -1.53144
O          7.86810        27.59093         1.91629
O         16.65596         7.72908         1.90581
O         17.07654        13.37284        -2.06538
O          1.33641        21.26433         1.12234
O          3.05923         5.85501         1.33414
O          8.47196        11.41631        -1.76341
O         12.23182        27.12374        -1.75485
H         12.39388        28.05773        -2.00806
O          6.13547        16.10970         2.54969
H          5.32769        16.57820         2.88862
O         10.22362         5.73331        -1.98691
H         11.01397         5.17062        -2.12966
O         10.30593        13.14110        -1.77929
H          9.86682        12.46780        -2.35289
O          3.63302        20.46706         2.00759
H          2.69954        20.62617         2.28562
O          3.77539        14.28500         2.37029
H          4.68810        14.50941         2.66975
O          6.01590         7.78724        -2.20741
H          6.84992         7.37461        -2.52002
O         13.52740         2.20330        -0.45745
H         13.77454         2.48683        -1.36114
O          1.24008        24.61278        -2.99774
H          2.16603        24.60061        -3.33593
O          2.32163         4.20451        -1.85516
H          2.25389         3.29236        -2.20723
O         10.73876        12.10980         1.68846
H         11.48599        11.68337         2.15852
O         10.52463         6.19525         1.64729
H         11.21397         6.61540         2.20412
O         11.93439        17.11504        -1.71546
H         12.73022        17.46950        -2.16775
O          9.84912        22.83421         2.35910
H          9.44377        23.69392         2.60518
O         10.14587        17.00315         2.37006
H          9.35645        17.39964         2.79713
O          3.78761        19.27987        -1.46891
H          4.66163        19.67639        -1.67396
O          3.39660        12.37904        -1.81722
H          4.23130        12.09342        -2.24989
O          8.58381        14.49003         2.27846
H          7.83344        14.99479         2.67272
O         14.42129         8.61038         2.13802
H         15.28539         8.30601         2.57102
O         17.08354        17.14258        -2.37688
H         17.09479        16.22384        -2.72342
O         18.50981        20.69378         1.41812
H         19.31119        20.22735         1.73721
O          2.10339         9.96116        -1.92765
H          2.29488        10.89561        -2.19588
O         15.82676        29.01038        -1.48924
H         15.61860        29.88910        -1.87450
O          3.48953        16.69050         2.53171
H          3.02147        15.93449         2.96069
O         19.83634        26.90890         2.11142
H         19.03306        26.41786         2.38934
O         18.61055        24.00955        -2.07572
H         18.31589        23.22334        -2.59311
O          6.45774        23.41007        -1.81570
H          5.70804        23.89287        -2.22872
O         15.91189        28.04996         2.04615
H         15.99429        27.16344         2.46501
O          7.05539        25.17238         2.18674
H          7.40140        25.93434         2.71036
O         14.73103        31.23772        -0.30745
H         14.04609        31.82222         0.07518
H          1.17176         2.29278         0.16503
H         -0.94139         3.54447         0.43530
H         -1.06728         5.98555         0.07713
H         -1.04506         7.95265         0.26535
H         -1.02688        10.36372         0.54829
H         -1.04999        12.23739         0.64463
H         -1.04086        14.66009         0.86853
H         -1.03653        16.51369         0.41698
H         -0.99429        18.94290         0.00883
H         -0.65886        20.54814        -1.45694
H         -0.57483        22.95622        -1.94899
H         -0.85659        24.93118        -1.13948
H         -0.87347        27.34354        -0.77441
H          0.26346        29.52508        -0.72496
H          3.72280         2.34311        -0.01535
H          2.34314        30.85262        -0.40770
H          6.17447         2.37907         0.01175
H          4.81192        30.92831        -0.11524
H          8.59555         2.39508         0.02214
H          7.27743        30.97321         0.01549
H         11.05048         2.38920         0.03534
H          9.78389        31.00688         0.02804
H         13.40326         2.97886         1.43929
H         12.22942        30.98839         0.15501
H         15.94253         2.35293         0.33018
H         14.86020        30.22615         1.52122
H         18.44868         2.33930         0.35031
H         17.27988        31.03720        -0.01571
H         20.59918         3.58635         0.32770
H         21.83916         5.73707         0.08388
H         21.87409         8.15668        -0.24968
H         21.85507        10.02958        -0.76288
H         21.86788        12.45008        -0.82115
H         21.87401        14.34858        -0.51662
H         21.88851        16.77691        -0.43504
H         21.86725        18.68900        -0.78908
H         21.90402        21.10564        -0.81582
H         21.96076        23.04926        -0.44341
H         21.93412        25.45028        -0.13554
H         21.96442        27.37046         0.22920
H         21.85849        29.79505        -0.01884
H         19.71915        31.04219         0.13008
