         324
 CSIRO Nanostructure Databank - Neutral Graphene Oxide Data Set
C          1.65324         2.02003         1.79572
C          1.58516         3.42759         1.61116
C          2.84853         1.34512         1.71748
C          2.71750         4.17180         1.31813
C          1.55681         6.38076         1.61707
C          1.55735         7.75722         1.57825
C          2.69805         5.63627         1.21376
C          2.68804         8.49234         1.12833
C          1.56868        10.67295         1.57745
C          1.59573        12.04111         1.65936
C          2.70155         9.92997         1.13001
C          2.74887        12.78929         1.27792
C          1.77435        14.90542         2.22119
C          1.76449        16.25711         2.32111
C          2.78205        14.20036         1.45667
C          2.72520        17.10214         1.52997
C          3.01469        18.44516         2.14787
C          4.06020         2.04395         1.41700
C          3.98442         3.47754         1.19014
C          5.27510         1.36538         1.27109
C          5.12823         4.18136         0.85198
C          3.82077         6.34304         0.74653
C          3.83846         7.77344         0.68244
C          5.01005         5.56028         0.34474
C          4.97383         8.50446         0.18669
C          3.85859        10.63855         0.70168
C          3.88044        12.07117         0.74589
C          5.00357         9.91722         0.21430
C          5.01793        12.77818         0.26199
C          3.90311        14.95800         0.97785
C          3.96844        16.32644         1.17307
C          4.94585        14.24747         0.19029
C          5.22299        17.06182         0.94748
C          4.15494        19.12054         1.89304
C          5.25940        18.52981         1.15811
C          6.48419         2.05046         0.97554
C          6.43632         3.52080         0.87772
C          7.71582         1.41532         0.84135
C          7.67002         4.23049         0.33856
C          6.21381         6.27358        -0.19092
C          6.12164         7.76416        -0.38342
C          7.54920         5.63849        -0.11726
C          7.39170         8.52459        -0.67525
C          6.19468        10.66528        -0.16319
C          6.18726        12.10578        -0.15872
C          7.38952         9.99057        -0.47788
C          7.38288        12.84953        -0.54966
C          6.14577        15.00684        -0.32355
C          6.33420        16.41229         0.18723
C          7.37648        14.25424        -0.63667
C          7.30597        17.32226        -0.55447
C          6.38696        19.23667         0.83342
C          7.52356        18.62724         0.18041
C          8.90605         2.05264         0.35417
C          8.84298         3.43040        -0.06208
C         10.11384         1.28112         0.45223
C          9.95476         4.19365        -0.54188
C          8.70110         6.35022        -0.36098
C          8.68662         7.79414        -0.60361
C          9.96130         5.63065        -0.46332
C          9.85575         8.48673        -0.71014
C          8.58668        10.71578        -0.73571
C          8.59676        12.11083        -0.79922
C          9.82344         9.94467        -1.00892
C          9.86532        12.83257        -1.11441
C          8.57006        15.04704        -1.01955
C          8.59723        16.55971        -0.91141
C          9.88594        14.33712        -1.16432
C          9.90762        17.23222        -0.73409
C          8.72958        19.26156         0.10731
C          9.93282        18.60768        -0.37188
C         11.29665         1.55661        -0.25948
C         11.16299         3.58819        -0.95510
C         12.63529         1.27276         0.02855
C         12.42319         4.21353        -0.87390
C         11.16706         6.31971        -0.62161
C         11.17703         7.80699        -0.37920
C         12.40766         5.63759        -0.77409
C         12.36312         8.47752        -1.08677
C         11.13055        10.69611        -1.05819
C         11.14856        12.14894        -0.87684
C         12.35988         9.93921        -0.69626
C         12.35576        12.85273        -0.77198
C         11.16192        15.05893        -0.91260
C         11.14246        16.53216        -0.85715
C         12.32204        14.31312        -0.75562
C         12.34961        17.27458        -0.88525
C         11.14320        19.31094        -0.34924
C         12.38304        18.70404        -0.67595
C         13.75838         2.02537        -0.50092
C         13.67040         3.46639        -0.84365
C         14.99194         1.37543        -0.49877
C         14.84763         4.20672        -0.99400
C         13.64554         6.36008        -0.87563
C         13.67115         7.77716        -0.82033
C         14.85380         5.64666        -1.06978
C         14.87739         8.47607        -0.80780
C         13.62483        10.69836        -0.45525
C         13.61594        12.15840        -0.67306
C         14.91147         9.92161        -0.47505
C         14.87390        12.83251        -0.75868
C         13.61624        14.99290        -0.56814
C         13.60605        16.50580        -0.79569
C         14.88629        14.27763        -0.78616
C         14.85239        17.02447        -1.31502
C         13.55771        19.53056        -0.55128
C         14.84934        19.20059        -1.04292
C         16.26696         2.05727        -0.72155
C         16.16965         3.54650        -0.93217
C         17.51012         1.38931        -1.11871
C         17.26318         4.17447        -1.70936
C         16.05415         6.39451        -1.26856
C         16.10263         7.78888        -1.07178
C         17.21716         5.70398        -1.83594
C         17.33933         8.51838        -1.33239
C         16.20109        10.67073        -0.60975
C         16.10261        12.14434        -0.72768
C         17.39660         9.96222        -1.15459
C         17.36053        12.88277        -0.68619
C         16.08359        14.99935        -0.86038
C         16.05671        16.42066        -1.07832
C         17.36391        14.33104        -0.91024
C         17.30923        17.22104        -1.03376
C         16.12545        19.58162        -0.66331
C         17.34154        18.72986        -0.90131
C         18.66167         2.07260        -1.56961
C         18.54098         3.49693        -1.90401
C         19.85603         1.31831        -1.71516
C         19.49167         4.27634        -2.56784
C         18.49414         6.40568        -1.96660
C         18.48472         7.82230        -1.74650
C         19.62123         5.68917        -2.39663
C         19.68281         8.54407        -2.21008
C         18.54227        10.68332        -1.43369
C         18.65455        12.11175        -1.06951
C         19.71010        10.04015        -2.07215
C         19.78549        12.91682        -1.52956
C         18.54159        15.00815        -1.20212
C         18.52633        16.46541        -1.47996
C         19.78689        14.30264        -1.39523
C         19.82801        17.20380        -1.58632
C         18.63788        19.38186        -1.19358
C         19.82520        18.67437        -1.34751
C         21.27289         1.71495        -2.06982
C         21.39859         3.19074        -2.34390
C         22.01685         1.30029        -0.83360
C         22.18879         4.08642        -1.68526
C         21.00103         6.30895        -2.39434
C         21.00064         7.81045        -2.25774
C         22.20395         5.55066        -1.85905
C         22.11509         8.48393        -1.46018
C         21.04662        10.73589        -2.05488
C         21.04534        12.23201        -1.88708
C         22.25550         9.97502        -1.68278
C         22.26117        12.90180        -1.39537
C         21.04590        15.03671        -1.43254
C         21.08073        16.43054        -1.42157
C         22.26976        14.28029        -1.23820
C         22.31635        17.13091        -1.21951
C         21.08712        19.31205        -1.26743
C         22.29676        18.58398        -1.15473
C         22.98531         2.12263        -0.25173
C         23.27868         3.41743        -0.92635
C         23.85390         1.68780         0.76743
C         24.46651         4.19882        -0.54232
C         23.34382         6.26109        -1.50325
C         23.42086         7.74783        -1.67536
C         24.51431         5.64344        -0.88943
C         24.71090         8.49869        -1.47150
C         23.43174        10.62967        -1.29361
C         23.38994        12.08016        -0.97236
C         24.66259         9.93842        -1.08375
C         24.67529        12.81175        -0.56484
C         23.51913        14.97235        -0.97692
C         23.51555        16.42314        -1.01023
C         24.69539        14.26537        -0.74913
C         24.71644        17.11772        -0.62702
C         23.48298        19.25961        -0.82341
C         24.65771        18.55348        -0.46953
C         25.03229         2.40845         1.16339
C         25.33759         3.69208         0.53896
C         25.95933         1.84374         2.03565
C         26.51325         4.35873         0.74806
C         25.67652         6.32046        -0.63605
C         25.98569         7.67835        -1.25593
C         26.82428         5.56145        -0.06709
C         27.07265         8.43084        -0.52200
C         25.86184        10.62101        -0.69384
C         25.93451        12.03358        -0.50219
C         27.06389         9.85018        -0.48083
C         27.12539        12.71291        -0.09427
C         26.03919        14.96505        -0.73757
C         25.88793        16.41113        -0.28972
C         27.06088        14.18054         0.07171
C         26.91867        17.07540         0.43169
C         25.72940        19.22292         0.14065
C         26.79309        18.48628         0.69967
C         27.10993         2.59784         2.52986
C         27.42196         3.95710         1.82596
C         28.25496         1.94896         3.18040
C         28.79965         4.45554         1.86428
C         28.13062         6.25515         0.16236
C         28.17497         7.73032        -0.00388
C         29.18160         5.59621         1.01881
C         29.37499         8.41897         0.29742
C         28.27732        10.53627        -0.20075
C         28.32185        11.94803         0.04981
C         29.46741         9.77175        -0.02999
C         29.63140        12.48331         0.43738
C         27.89254        14.89298         0.90347
C         27.98958        16.33668         1.01809
C         29.75807        13.68589         1.15662
C         28.94455        16.97766         1.87651
C         27.64307        19.07240         1.65536
C         28.63946        18.32965         2.30316
C         29.42356         2.61808         3.37394
C         29.70833         3.89914         2.75756
C         30.92301         4.61613         3.08247
C         30.44633         6.35403         1.39734
C         30.52198         7.84890         1.11656
C         31.20603         5.83307         2.54669
C         31.84954         8.33329         0.57768
C         30.78896        10.39798        -0.39894
C         30.84804        11.81974         0.10687
C         31.96889         9.52787        -0.01753
C         32.07418        12.47334         0.26271
C         30.97353        14.37199         1.25440
C         30.16839        16.43692         2.45213
C         32.14590        13.77348         0.77121
C         30.73817        17.03163         3.57611
C         29.30048        18.93784         3.41693
C         30.26598        18.25113         4.10946
O          8.40458        15.91810        -2.21691
O         26.76125         3.89354         3.12849
O         16.81724         4.82168        -2.93958
O         21.18871        11.63375        -3.22352
O         19.05300        16.82759        -2.79293
O         27.91693         5.45403        -1.05033
O         16.55729         3.08303         0.38481
O         13.71911        15.92018         0.55846
O         11.10170         2.29238        -1.45321
O         12.75832        10.24212         0.66362
O         23.71430        12.34014         0.44795
O          9.88247        13.55351        -2.40815
O         31.11317        15.59949         1.85140
O         19.41485         9.40604        -3.36004
O          5.00756        14.77880        -1.20387
O         10.45500        10.28691        -2.30684
O          5.30065         5.57747        -1.12005
O          7.39332         4.17479         1.80562
O          6.41883        16.42509         1.63440
O         24.15635         8.24567        -2.82700
O         24.51268         3.33356        -1.74625
O         17.52257        17.81038         0.29658
O         20.49766         3.64079        -3.30587
O         21.32965         7.19913        -3.52058
O         14.82316        18.20044        -2.05090
O          6.48152         8.12980        -1.75812
O         15.74848        10.17170         0.70692
O         30.44046         5.45262         0.26343
O         18.29742        12.39505         0.32489
O         28.65788        14.19742         1.85571
O         11.38007         7.99898         1.04724
H         10.74891         7.42600         1.53020
O          6.65293        17.69681        -1.78820
H          6.92647        17.03718        -2.47049
O         30.78778        10.45893        -1.85758
H         30.59671         9.55902        -2.19714
O         30.36350         8.44515         2.44333
H         30.43225         9.41887         2.35027
O          2.04899        17.40529         0.25211
H          1.92057        16.55556        -0.22147
O         21.73040         0.96167        -3.22386
H         21.36319         1.39479        -4.02313
O         26.55996         7.40136        -2.55562
H         25.80719         7.32581        -3.18856
O         21.70477         8.30864        -0.06595
H         22.27330         8.87035         0.50325
O         26.53046        15.00513        -2.11942
H         25.88799        15.52128        -2.65088
O         12.21080         8.34708        -2.51449
H         11.45410         8.91855        -2.80405
H          0.72753         1.47177         2.01966
H          0.60508         3.91421         1.70762
H          2.88681         0.25824         1.87874
H          0.66346         5.86074         1.98738
H          0.65676         8.28532         1.91627
H          0.65139        10.15067         1.87673
H          0.69899        12.56633         2.01259
H          1.01527        14.32649         2.76577
H          0.98071        16.76254         2.90479
H          2.20790        18.92322         2.72357
H          5.29683         0.27092         1.38308
H          4.28630        20.14543         2.27315
H          7.77210         0.33707         1.05541
H          6.46152        20.29869         1.11477
H         10.12162         0.46575         1.19191
H          8.84208        20.26488         0.54663
H         12.86656         0.48342         0.76002
H         11.13066        20.37393        -0.06669
H         15.01308         0.29080        -0.31165
H         13.43313        20.47427         0.00204
H         17.57417         0.30012        -0.97168
H         16.25324        20.39633         0.06589
H         19.75763         0.24746        -1.47055
H         18.68937        20.47900        -1.11006
H         21.84522         0.29012        -0.43377
H         21.12211        20.40492        -1.13982
H         23.67481         0.70382         1.22755
H         23.46811        20.35462        -0.71740
H         25.84369         0.79448         2.34747
H         25.67248        20.30843         0.30773
H         28.14361         0.91061         3.52660
H         27.45612        20.10832         1.97436
H         30.23979         2.13289         3.93002
H         31.54946         4.21656         3.89399
H         32.02557         6.44400         2.95188
H         32.74224         7.71610         0.76351
H         32.95801         9.85398        -0.37554
H         33.00027        11.96616        -0.03800
H         33.10707        14.29503         0.85757
H         31.65087        16.58220         3.98985
H         28.99103        19.94659         3.72276
H         30.74717        18.68442         4.99627
