         424
 CSIRO Nanostructure Databank - Neutral Graphene Oxide Data Set
C          1.32629         3.32974         0.15589
C          0.11607         3.99222         0.26189
C          1.24475         6.16563         0.29906
C          0.07095         5.39388         0.33449
C          1.21671         7.62272         0.36412
C          0.01055         8.32929         0.48278
C          1.15124        10.48776         0.41769
C         -0.02262         9.72284         0.51713
C          1.11720        11.94242         0.42415
C         -0.08696        12.66932         0.50478
C          1.08038        14.81865         0.44578
C         -0.10431        14.06313         0.52019
C          1.07094        16.27480         0.52579
C         -0.08367        17.02108         0.49600
C          1.08919        19.18781         0.55047
C         -0.07805        18.44812         0.56782
C          1.09969        20.65228         0.57471
C         -0.08005        21.37927         0.88053
C          1.10078        23.49594         0.65015
C         -0.08738        22.75970         0.87963
C          1.10809        24.94224         0.64769
C         -0.13239        25.67255         0.51793
C          0.99681        27.85540         0.63113
C         -0.18482        27.02398         0.38851
C          1.05842        29.26272         0.21971
C         -0.04623        29.93123        -0.29292
C          1.22276        32.02310        -0.56673
C         -0.00856        31.29945        -0.58281
C          1.26455        33.40260        -1.06269
C          0.13971        34.13879        -1.33718
C          1.38065        36.21667        -1.76169
C          0.19295        35.51669        -1.72866
C          1.42330        37.66689        -1.88306
C          3.78768         3.40704         0.01826
C          2.54202         4.06769         0.12157
C          3.72566         6.24057         0.16901
C          2.50000         5.49745         0.18912
C          3.68841         7.68854         0.20598
C          2.44105         8.36494         0.29048
C          3.61324        10.54064         0.17045
C          2.40360         9.80161         0.29911
C          3.58590        11.98094         0.20507
C          2.33936        12.67349         0.33852
C          3.55362        14.80994         0.26280
C          2.31892        14.10169         0.33424
C          3.50318        16.28871        -0.03093
C          2.39296        16.98780         0.75980
C          3.51025        19.16803         0.17770
C          2.36043        18.48515         0.46389
C          3.51538        20.64555        -0.16449
C          2.28955        21.36549         0.34062
C          3.56242        23.50621         0.35146
C          2.31462        22.78330         0.43664
C          3.57215        24.93066         0.43664
C          2.32735        25.63211         0.60035
C          3.59516        27.83163         0.51949
C          2.34691        27.09192         0.76081
C          3.59057        29.24535         0.49475
C          2.29710        30.04905         0.59316
C          3.74681        31.92616        -0.48205
C          2.38232        31.37609        -0.13941
C          3.76803        33.43101        -0.61319
C          2.60640        34.01865        -1.37371
C          3.77659        36.21742        -1.24108
C          2.61180        35.52725        -1.40931
C          3.90218        37.60174        -1.83140
C          2.59142        38.34358        -1.83074
C          6.24786         3.46950        -0.14402
C          4.98991         4.13523         0.00351
C          6.24458         6.30385         0.29422
C          4.95003         5.56153         0.09218
C          6.15545         7.76516        -0.03471
C          4.90109         8.43140         0.07174
C          6.06562        10.59335        -0.19737
C          4.85532         9.86116         0.01959
C          6.05716        12.04495        -0.11990
C          4.79244        12.71213         0.15417
C          6.07071        14.83852         0.55296
C          4.76344        14.12936         0.26777
C          5.99213        16.33366         0.35088
C          4.82555        16.98255         0.16719
C          6.06780        19.21701         0.03839
C          4.78301        18.44950        -0.04529
C          6.01955        20.67670         0.25093
C          4.80836        21.35886         0.20904
C          6.02861        23.49961         0.39954
C          4.79570        22.78895         0.31440
C          6.03425        24.93339         0.37160
C          4.80170        25.65050         0.37778
C          6.03186        27.81741         0.34470
C          4.81338        27.10705         0.39140
C          6.04003        29.23027         0.45353
C          4.81011        29.93462         0.48631
C          6.13157        32.09707         0.30697
C          4.79038        31.43933         0.52777
C          6.14866        33.46568         0.02351
C          4.90353        34.13998        -0.35600
C          6.23403        36.28547        -0.63511
C          4.89199        35.64929        -0.39206
C          6.25601        37.68751        -0.95574
C          5.08353        38.36307        -1.32319
C          8.66292         3.50211        -0.64186
C          7.43918         4.18196        -0.34658
C          8.60054         6.33414        -0.62445
C          7.44403         5.61547        -0.30999
C          8.58233         7.78977        -0.60507
C          7.32437         8.47748        -0.33377
C          8.47348        10.63113        -0.82651
C          7.25808         9.89757        -0.45642
C          8.47017        12.14293        -0.71892
C          7.21603        12.78157        -0.30418
C          8.52282        14.94923        -0.06028
C          7.18916        14.28480        -0.34863
C          8.53409        16.30412         0.25296
C          7.28034        17.03730         0.68964
C          8.50697        19.19171         0.43056
C          7.31383        18.49721         0.32732
C          8.49500        20.64310         0.43915
C          7.26853        21.36109         0.41016
C          8.49767        23.49476         0.52983
C          7.26420        22.78925         0.45606
C          8.49573        24.92816         0.47937
C          7.28149        25.62212         0.35889
C          8.53847        27.76698         0.61032
C          7.31621        27.09316         0.03984
C          8.48118        29.18556         0.92054
C          7.27748        29.95875         0.60595
C          8.60008        32.08123         0.57487
C          7.33835        31.36605         0.53647
C          8.59912        33.50310         0.30084
C          7.38478        34.18339        -0.00188
C          8.67358        36.28496        -0.33595
C          7.41658        35.59216        -0.32391
C          8.70231        37.68822        -0.66329
C          7.50482        38.37148        -0.92749
C         11.07302         3.44649        -1.26302
C          9.82460         4.20106        -0.88495
C         11.04853         6.34701        -1.08005
C          9.83170         5.63591        -0.90022
C         10.98949         7.82790        -1.38008
C          9.74676         8.50434        -0.86186
C         10.95900        10.65890        -0.72061
C          9.76609         9.93526        -0.79249
C         10.96159        12.09280        -0.50581
C          9.75669        12.82858        -0.47975
C         10.99875        14.91046        -0.01975
C          9.75342        14.22301        -0.18483
C         10.97963        16.32729         0.14780
C          9.76783        17.02770         0.32687
C         10.97456        19.19425         0.50550
C          9.76386        18.46928         0.46868
C         10.96273        20.63263         0.55478
C          9.72581        21.34896         0.53248
C         10.96886        23.48351         0.59362
C          9.72617        22.77736         0.57448
C         10.96313        24.93405         0.63191
C          9.75502        25.63807         0.55535
C         11.00795        27.79797         0.74227
C          9.74775        27.08170         0.67470
C         11.05544        29.19998         0.80661
C          9.82591        29.95303         1.03690
C         11.07808        32.07263         0.80931
C          9.81911        31.39802         0.77053
C         11.03160        33.54396         0.81336
C          9.81703        34.22806         0.34658
C         11.14384        36.30333        -0.08347
C          9.87455        35.60860         0.00902
C         11.15982        37.67925        -0.52384
C          9.95129        38.35519        -0.75349
C         13.52756         3.56675        -0.89759
C         12.33776         4.23209        -1.02387
C         13.53639         6.39651        -1.01881
C         12.29563         5.67660        -1.06312
C         13.54539         7.87590        -1.34392
C         12.25168         8.58011        -1.02938
C         13.45048        10.66206        -0.48157
C         12.22349         9.93470        -0.77554
C         13.41143        11.99244        -0.09295
C         12.19438        12.75900        -0.18431
C         13.49226        14.82127         0.29674
C         12.22169        14.16144         0.01082
C         13.55752        16.30279         0.21989
C         12.23136        17.08558         0.08792
C         13.45160        19.19969         0.56143
C         12.23542        18.51352         0.42590
C         13.44544        20.63229         0.62300
C         12.18772        21.34717         0.54327
C         13.45328        23.51921         0.28165
C         12.17524        22.76462         0.53485
C         13.46512        24.86876         0.98779
C         12.20649        25.65781         0.69196
C         13.51099        27.74983         0.29201
C         12.22618        27.03839         0.64949
C         13.49119        29.22451         0.61386
C         12.31176        29.92813         0.77735
C         13.56316        32.12071         0.91270
C         12.30834        31.38627         0.90033
C         13.59001        33.49525         0.72529
C         12.35836        34.29389         0.73678
C         13.61527        36.29525        -0.09028
C         12.36521        35.65513         0.17073
C         13.61641        37.66229        -0.54498
C         12.40325        38.33326        -0.72291
C         15.96195         3.58506        -0.63681
C         14.77486         4.27379        -0.75935
C         16.00451         6.44578        -0.77066
C         14.74277         5.72635        -0.82928
C         16.01640         7.88054        -0.80276
C         14.76537         8.60792        -0.85259
C         15.94990        10.70310        -0.30520
C         14.71668         9.95969        -0.55632
C         15.92508        11.96173         0.20870
C         14.60565        12.59050         0.61332
C         15.88524        14.77475         0.97085
C         14.63807        14.10348         0.53137
C         15.88983        16.29244         1.15523
C         14.70084        17.04126         0.72668
C         15.88285        19.16194         1.06284
C         14.71289        18.46822         0.72926
C         15.88493        20.64750         1.26969
C         14.65242        21.34288         0.76183
C         15.92149        23.43674         0.62537
C         14.70247        22.74537         0.61934
C         15.93834        24.88899         0.56479
C         14.75511        25.59762         0.71008
C         16.02112        27.73332         0.46235
C         14.75058        27.08111         0.92283
C         15.96257        29.18566         0.09091
C         14.79958        29.87739         0.77375
C         16.12135        32.03985         0.59058
C         14.85286        31.37513         0.96211
C         16.17982        33.49341         0.65411
C         14.85025        34.26803         0.68887
C         16.08769        36.26482        -0.17683
C         14.85202        35.63454         0.14476
C         16.06851        37.64823        -0.61286
C         14.86681        38.31588        -0.76808
C         18.47808         3.59485        -0.87822
C         17.25233         4.28160        -0.33425
C         18.45147         6.45062        -0.75904
C         17.21655         5.75168        -0.67237
C         18.46455         7.87700        -0.73752
C         17.22889         8.57375        -0.70232
C         18.49282        10.70345        -0.28821
C         17.22584        10.07531        -0.81104
C         18.47267        12.01802         0.20197
C         17.19018        12.60852         0.73530
C         18.36953        14.83299         0.85850
C         17.18350        14.12099         0.75205
C         18.37010        16.28695         1.05682
C         17.18073        16.99103         1.14974
C         18.38890        19.18944         1.05181
C         17.14793        18.46376         1.49511
C         18.38139        20.56621         0.76801
C         17.16122        21.31901         0.80716
C         18.39845        23.40817         0.37054
C         17.16910        22.70706         0.61911
C         18.40654        24.84020         0.25923
C         17.19851        25.57667         0.40976
C         18.45352        27.71189         0.07296
C         17.20420        27.01438         0.31778
C         18.47274        29.15548         0.06747
C         17.28372        29.88979         0.22318
C         18.54604        32.02304         0.09237
C         17.28970        31.31691         0.28519
C         18.57804        33.43614         0.06523
C         17.38317        34.19043         0.17155
C         18.54442        36.17288        -0.80339
C         17.32345        35.55723        -0.15348
C         18.52049        37.68487        -0.79954
C         17.32105        38.34107        -0.81436
C         19.61711         4.28333        -1.09366
C         20.86957         6.44054        -1.04237
C         19.67438         5.72916        -0.93282
C         20.89247         7.84005        -0.91514
C         19.71667         8.57857        -0.74744
C         20.91863        10.72409        -0.23755
C         19.72024        10.01766        -0.46768
C         20.89831        12.06090         0.13278
C         19.68189        12.72578         0.39867
C         20.81319        14.85138         0.99352
C         19.64917        14.14171         0.77092
C         20.80485        16.25712         1.19421
C         19.63796        16.98191         1.16095
C         20.83496        19.13871         0.61913
C         19.68870        18.48765         1.34105
C         20.78946        20.44561         0.25656
C         19.60420        21.24840         0.42432
C         20.81372        23.38872        -0.02044
C         19.61100        22.66503         0.24797
C         20.81971        24.76111        -0.13448
C         19.63494        25.53295         0.01323
C         20.87135        27.70184        -0.25989
C         19.64885        26.97595        -0.06820
C         20.90448        29.07132        -0.28787
C         19.71950        29.85608        -0.11815
C         20.92948        32.00343        -0.56694
C         19.73964        31.27229        -0.15953
C         21.00066        33.35071        -0.51372
C         19.90707        34.15262         0.14573
C         20.97724        36.35746        -0.29884
C         19.85195        35.59733        -0.30364
C         20.95370        37.75643        -0.65886
C         19.77335        38.39704        -0.88755
O         15.02990        30.43494         2.09478
O         15.64660        34.07392         1.89966
O          8.35036        11.48140        -2.03460
O         15.72277        15.38414         2.30971
O          6.38823        14.62233         1.91377
O         13.06662        16.79253        -1.08293
O          5.46872        18.84484        -1.30061
O          9.06911        29.54765         2.21817
O         11.61938        34.17573         2.00151
O          1.62403        27.59575         1.94103
O          4.10210        31.36510        -1.77899
H          3.58706        31.87255        -2.45434
O         10.88755         7.89453        -2.85170
H         11.80212         7.73574        -3.19727
O         14.59658        27.28540         2.37531
H         15.48245        27.21045         2.78961
O          4.32908        31.88967         1.82870
H          4.86635        31.44884         2.51896
O         13.65637         7.90963        -2.83511
H         13.90985         8.82533        -3.08403
O         13.49068        23.80707        -1.14947
H         13.47378        22.95318        -1.62997
O          2.10580        30.35022         2.02263
H          1.94694        29.47789         2.45865
O         11.12360         2.17026        -0.61775
H         11.16834         2.31756         0.34895
O          3.14132        16.42398        -1.43164
H          3.89606        16.10779        -1.97165
O          4.20575        37.36150        -3.27512
H          3.36376        37.09010        -3.70082
O          7.33534        17.02036         2.15298
H          7.02759        16.08916         2.40332
O         17.39309         4.21805         1.14196
H         16.62159         4.68771         1.52497
O          2.86778        33.62683        -2.78874
H          3.62966        34.16305        -3.10038
O          3.45104        20.71596        -1.62873
H          4.16322        20.11340        -1.95820
O         17.18084        12.25042         2.17994
H         17.88264        12.77758         2.62004
O         19.92486        18.68536         2.80893
H         20.11600        19.64046         2.93532
O         15.63397        29.28036        -1.34872
H         16.08617        28.54136        -1.80853
O          7.46244        27.18211        -1.43412
H          8.18965        26.57503        -1.69011
O         14.41074        12.27401         2.03133
H         15.29220        12.36983         2.46882
O         17.16347        18.49759         2.98691
H         18.11253        18.37796         3.25313
O         13.43874        24.62754         2.42190
H         13.58315        25.49968         2.85783
O         18.46120        35.77461        -2.22445
H         19.19065        36.23292        -2.69366
O         15.85392        20.84920         2.73640
H         16.33078        20.07690         3.14072
O          6.49581         6.25226         1.75806
H          6.46604         5.30700         2.01971
O          2.72017        16.83336         2.16485
H          1.97824        17.19351         2.69329
O         13.65885        27.57238        -1.14633
H         12.92698        28.04837        -1.59048
O         17.22398        10.36812        -2.25901
H         18.01495         9.93336        -2.64370
O          6.82444        14.64052        -1.71940
H          7.39640        14.12441        -2.32738
O          4.54068        36.07070         0.97900
H          3.79577        35.50831         1.28188
O         20.24388        34.20180         1.57566
H         20.22831        33.28144         1.91407
H          1.36127         2.23237         0.10026
H         -0.82283         3.42158         0.29017
H         -0.91085         5.87835         0.41877
H         -0.94279         7.78837         0.55126
H         -0.99872        10.21608         0.61558
H         -1.04779        12.14071         0.56860
H         -1.07530        14.56942         0.61288
H         -1.06112        16.52970         0.38418
H         -1.05321        18.95430         0.56921
H         -1.01292        20.84437         1.10420
H         -1.02717        23.28388         1.09886
H         -1.06025        25.10167         0.37633
H         -1.13390        27.50526         0.11446
H         -0.98933        29.39054        -0.45742
H         -0.92641        31.78211        -0.94189
H         -0.85902        33.70302        -1.19288
H         -0.75420        36.04607        -1.90761
H          0.46686        38.20635        -1.96086
H          3.81519         2.30952        -0.05269
H          2.60701        39.44160        -1.90230
H          6.26343         2.37055        -0.19442
H          5.13304        39.44311        -1.53122
H          8.67576         2.40268        -0.67424
H          7.53636        39.44236        -1.17653
H         11.01579         3.23438        -2.36966
H          9.97241        39.41445        -1.04963
H         13.53532         2.46667        -0.89390
H         12.40745        39.38409        -1.04847
H         15.94527         2.48463        -0.60464
H         14.86499        39.36968        -1.08419
H         18.44977         2.50240        -1.00636
H         17.29449        39.43519        -0.93744
H         20.53099         3.76491        -1.42211
H         21.81256         5.89863        -1.20385
H         21.86422         8.35099        -0.95695
H         21.88869        10.22618        -0.36871
H         21.85553        12.58520         0.25225
H         21.78677        14.34406         0.98713
H         21.76802        16.76111         1.35152
H         21.75897        18.56672         0.45425
H         21.67961        20.89651        -0.20518
H         21.76317        22.84790        -0.12998
H         21.77659        25.25979        -0.33826
H         21.81670        27.15540        -0.37507
H         21.87324        29.57177        -0.41995
H         21.77701        31.44041        -0.98335
H         21.90957        33.86932        -0.85342
H         21.93481        35.92230         0.02284
H         21.90243        38.31017        -0.68558
H         19.74972        39.48079        -1.07598
