         620
 CSIRO Nanostructure Databank - Neutral Graphene Oxide Data Set
C         22.99682        27.38703        -0.54611
C         23.01029        28.75030        -0.52674
C         23.01180        31.66824        -0.70682
C         22.99791        33.04381        -0.73006
C         22.98106        35.96611        -0.61246
C         22.98313        37.34502        -0.47301
C         22.98185        40.28202        -0.76680
C         23.01228        41.62384        -0.93748
C         22.99914        44.56825        -0.70026
C         23.00093        45.93469        -0.58822
C         25.47142        24.54018        -0.59550
C         24.25110        25.28108        -0.63583
C         25.41295        27.37794         0.13477
C         24.21195        26.63506        -0.40868
C         25.46438        28.82800        -0.34127
C         24.25034        29.50431        -0.49605
C         25.45296        31.66102        -0.72556
C         24.23455        30.94071        -0.66138
C         25.44020        33.09829        -0.78801
C         24.20258        33.79569        -0.73513
C         25.42324        35.95134        -0.60115
C         24.19216        35.23897        -0.67170
C         25.41389        37.37506        -0.45370
C         24.18449        38.06916        -0.40094
C         25.44177        40.26578        -0.37078
C         24.13396        39.55638        -0.11851
C         25.44580        41.67540        -0.53059
C         24.21595        42.39715        -0.71305
C         25.46353        44.53868        -0.74688
C         24.21970        43.81506        -0.73948
C         25.44545        45.95061        -0.75403
C         24.22884        46.66894        -0.59776
C         25.46188        48.78634        -0.43172
C         24.26219        48.07868        -0.45231
C         28.03021        23.06674        -0.25102
C         27.93815        24.42925        -0.45163
C         26.68326        25.15492        -0.37823
C         27.97995        27.37596        -0.31480
C         26.72339        26.61242        -0.05568
C         27.95500        28.85220        -0.46845
C         26.70641        29.53893        -0.46127
C         27.93466        31.64120        -0.82940
C         26.70075        30.95190        -0.66744
C         27.93582        33.10624        -1.20313
C         26.66262        33.83096        -0.84279
C         27.91343        35.94908        -0.57124
C         26.66441        35.22781        -0.69453
C         27.87258        37.35954        -0.34039
C         26.66943        38.08638        -0.32101
C         27.87201        40.27242        -0.21796
C         26.65795        39.54182        -0.27129
C         27.89634        41.68886        -0.31541
C         26.68042        42.40110        -0.50901
C         27.95118        44.51015        -0.53602
C         26.71085        43.82018        -0.64521
C         28.02468        45.94514        -0.81602
C         26.68400        46.71628        -0.93345
C         27.96125        48.84197        -0.62608
C         26.69973        48.15428        -0.66148
C         28.01250        50.25672        -0.66811
C         30.47062        23.03112        -0.61074
C         29.26836        22.38236        -0.35694
C         30.46985        24.46475        -0.79517
C         29.16443        25.15248        -0.84862
C         30.45490        27.36871        -0.80735
C         29.16743        26.65969        -0.87766
C         30.43757        28.78635        -0.72575
C         29.16715        29.53069        -0.66674
C         30.41575        31.67777        -1.20854
C         29.14323        30.94970        -0.82816
C         30.41227        33.16010        -0.85837
C         29.19754        33.83786        -0.79443
C         30.40732        35.98168        -0.52747
C         29.15569        35.25325        -0.58994
C         30.40857        37.35917        -0.35026
C         29.14700        38.04591        -0.05921
C         30.37861        40.31619        -0.13841
C         29.12891        39.56421         0.01573
C         30.35128        41.69121        -0.02090
C         29.12090        42.41253        -0.13554
C         30.39527        44.56804        -0.03701
C         29.14907        43.83014        -0.20371
C         30.40963        45.99767        -0.11295
C         29.22249        46.70406        -0.43464
C         30.42018        48.83736        -0.22609
C         29.19778        48.11947        -0.46106
C         30.42403        50.25939        -0.29728
C         29.20617        50.94031        -0.54303
C         32.97556        20.21704        -0.44466
C         31.78537        20.90910        -0.41507
C         32.95619        23.01424        -0.76732
C         31.74859        22.31682        -0.60687
C         32.93939        24.46526        -1.19372
C         31.64827        25.18943        -0.89908
C         32.90767        27.33677        -0.73346
C         31.66623        26.63679        -0.86187
C         32.89603        28.75556        -0.66778
C         31.66070        29.47114        -0.72411
C         32.92489        31.69076        -0.64935
C         31.63391        30.95251        -0.66452
C         32.93221        33.14905        -0.98676
C         31.65207        33.88467        -0.80877
C         32.92072        36.01235        -0.50979
C         31.66657        35.27451        -0.67071
C         32.92241        37.41650        -0.35928
C         31.64492        38.12688        -0.75521
C         32.92078        40.31337        -0.06620
C         31.64279        39.61471        -0.41982
C         32.85956        41.69280         0.50316
C         31.56914        42.43319         0.36931
C         32.83608        44.58519         0.40764
C         31.60093        43.89681         0.24682
C         32.85066        46.00745         0.36625
C         31.63197        46.71182         0.11777
C         32.83794        48.85780         0.36392
C         31.63153        48.13418         0.06097
C         32.81049        50.26704         0.35374
C         31.65564        50.97367        -0.06612
C         32.96431        53.04296        -0.20577
C         31.75646        52.36638        -0.32364
C         35.50616        18.77826        -0.78086
C         35.46259        20.19170        -0.62375
C         34.20865        20.90034        -0.57859
C         35.45230        23.02627        -0.70087
C         34.20086        22.32101        -0.68729
C         35.44274        24.48997        -0.86642
C         34.17524        25.22680        -0.78661
C         35.38491        27.34003        -0.32994
C         34.16845        26.61403        -0.65110
C         35.33083        28.76318        -0.24856
C         34.14212        29.45317        -0.50206
C         35.49169        31.66201        -0.50506
C         34.19868        30.91306        -0.72444
C         35.46218        33.13292        -0.40256
C         34.23734        33.88288        -0.79011
C         35.35157        36.01087        -0.19047
C         34.16259        35.32039        -0.46025
C         35.35235        37.40527         0.04096
C         34.12642        38.12742        -0.06614
C         35.33605        40.24950         0.48751
C         34.15674        39.54785         0.12640
C         35.33187        41.71588         0.62687
C         34.12169        42.45212         0.53077
C         35.31462        44.58704         0.67951
C         34.08542        43.86140         0.56372
C         35.32050        46.01490         0.72132
C         34.07758        46.73566         0.56987
C         35.29508        48.87881         0.89165
C         34.06518        48.14344         0.61977
C         35.25687        50.26658         0.95938
C         33.96439        51.04516         0.92595
C         35.31025        53.17192         0.55559
C         34.10698        52.43877         0.34373
C         35.45337        54.51159         0.17065
C         37.93965        18.79350        -0.67742
C         36.70436        18.10936        -0.85464
C         37.91802        20.19718        -0.45014
C         36.67920        20.90991        -0.51644
C         37.90408        23.06353        -0.23194
C         36.66758        22.34947        -0.50150
C         37.91698        24.47200        -0.14584
C         36.73255        25.24581        -0.55109
C         37.79880        27.29620         0.31290
C         36.63093        26.65822        -0.15078
C         37.72342        28.70627         0.72800
C         36.49273        29.50044         0.31441
C         37.77185        31.66231         0.46298
C         36.63522        30.95732         0.10902
C         37.85022        33.09834         0.23713
C         36.62366        33.79863        -0.10683
C         37.88433        36.01582         0.00597
C         36.63017        35.27237        -0.26319
C         37.81156        37.45074         0.30577
C         36.58699        38.12302         0.29295
C         37.78417        40.20307         0.99615
C         36.54734        39.53101         0.56653
C         37.76849        41.72958         1.15576
C         36.52515        42.43927         0.82614
C         37.77098        44.57692         0.98011
C         36.53737        43.86251         0.80751
C         37.75651        45.97746         1.06189
C         36.54455        46.70928         0.93184
C         37.77163        48.84103         1.22991
C         36.55521        48.15727         1.04423
C         37.76046        50.29208         1.48897
C         36.43439        51.02492         1.39718
C         37.79262        53.23940         1.26277
C         36.44861        52.51978         1.24009
C         37.84670        54.60757         0.70814
C         36.67144        55.20453         0.26427
C         40.48343        16.07178        -1.15077
C         39.27904        16.72561        -1.12108
C         40.38047        18.77370        -0.33155
C         39.19590        18.09227        -0.71585
C         40.31361        20.14877         0.03900
C         39.12557        20.88765        -0.10110
C         40.26557        23.03006         0.44985
C         39.10111        22.33102         0.07577
C         40.28402        24.45727         0.50627
C         39.08255        25.18391         0.24602
C         40.26463        27.31210         0.72613
C         39.05179        26.60950         0.42314
C         40.28586        28.73832         0.90923
C         38.98886        29.44814         1.05756
C         40.26119        31.70580         1.08488
C         38.95394        30.96940         1.04512
C         40.30487        33.11762         0.65987
C         39.06394        33.79811         0.36244
C         40.28855        35.92971         0.48731
C         39.11619        35.24962         0.30249
C         40.26535        37.38313         0.75969
C         39.11167        38.18908         0.19480
C         40.26821        40.27792         0.93117
C         39.08337        39.57791         0.76171
C         40.26740        41.72077         1.06042
C         39.04664        42.44863         1.06785
C         40.27501        44.56474         1.01472
C         39.03175        43.85467         1.03650
C         40.29214        45.98001         1.08674
C         39.02035        46.67429         1.50016
C         40.26022        48.82767         1.32455
C         39.04145        48.15808         1.25393
C         40.26797        50.29437         1.54449
C         39.02093        51.06495         1.37924
C         40.30956        53.15821         1.16079
C         39.04821        52.44321         1.32175
C         40.29335        54.59293         0.95935
C         39.11150        55.30525         0.73555
C         40.32631        57.44025         0.51684
C         39.14669        56.73662         0.55014
C         42.92062        16.03555        -0.77566
C         41.68396        16.72635        -0.73972
C         42.84567        18.71647         0.14342
C         41.64007        18.07810        -0.29931
C         42.82050        20.10747         0.55983
C         41.50462        20.77109         0.63484
C         42.75922        22.97110         0.96283
C         41.46999        22.27654         0.85770
C         42.68954        24.41891         1.18626
C         41.47279        25.16935         0.83678
C         42.74888        27.30537         0.93284
C         41.49400        26.58430         0.85695
C         42.75149        28.73216         0.84791
C         41.50205        29.43367         0.94315
C         42.80138        31.61353         0.70839
C         41.55644        30.90871         1.08484
C         42.78171        33.05903         0.66607
C         41.52773        33.77232         0.63864
C         42.80327        35.94937         0.86414
C         41.60112        35.23790         0.29233
C         42.81815        37.36857         1.05427
C         41.52751        38.10363         1.07938
C         42.73345        40.25968         1.02090
C         41.54301        39.58004         0.95551
C         42.74213        41.70183         0.91451
C         41.49901        42.41815         0.98594
C         42.73580        44.54456         0.81511
C         41.50564        43.84192         0.94112
C         42.73273        45.96871         0.80862
C         41.50438        46.68686         1.00038
C         42.75119        48.81043         1.00370
C         41.53193        48.13137         1.14334
C         42.90740        50.25950         1.43786
C         41.59054        51.04160         1.52754
C         42.74309        53.11563         0.64509
C         41.52116        52.46006         1.15435
C         42.76847        54.60694         0.56235
C         41.58890        55.34563         1.15199
C         42.79406        57.42636         0.50572
C         41.57268        56.77983         0.68141
C         44.07976        16.66087        -0.36485
C         45.28842        18.60087         0.66549
C         44.05674        17.99040         0.11943
C         45.24937        20.09885         1.04994
C         43.97410        20.82343         0.86750
C         45.22931        23.00036         1.04414
C         43.96697        22.27460         1.00959
C         45.24626        24.41018         1.05724
C         44.00958        25.17804         1.26522
C         45.22071        27.31092         0.89155
C         43.98813        26.62134         0.99147
C         45.22533        28.73171         0.75106
C         43.98723        29.44193         0.73170
C         45.21454        31.58421         0.18336
C         43.97463        30.88028         0.55954
C         45.22646        33.10868         0.29076
C         43.97730        33.79642         0.60810
C         45.25933        35.90315         0.94759
C         44.01990        35.22549         0.82748
C         45.28961        37.32725         1.45316
C         43.99735        38.06804         1.22843
C         45.24659        40.20334         0.85865
C         44.01291        39.56546         1.44781
C         45.15322        41.58797         0.27623
C         43.94383        42.38408         0.70829
C         45.17524        44.51072         0.41701
C         43.96287        43.81138         0.65192
C         45.16562        45.94124         0.38877
C         43.95600        46.67553         0.62197
C         45.18453        48.80609         0.39514
C         43.96708        48.10522         0.67486
C         45.22013        50.25983         0.44937
C         44.03656        50.98986         0.74393
C         45.23447        53.12049         0.44710
C         44.02469        52.38373         0.62271
C         45.26026        54.56505         0.40571
C         44.06850        55.32569         0.51788
C         44.01861        56.72918         0.50772
C         47.74255        18.74774         0.54874
C         46.60467        18.05057         0.31888
C         47.74581        20.13549         0.96301
C         46.52036        20.83410         1.06884
C         47.69839        22.97567         1.05992
C         46.49375        22.27892         1.06489
C         47.70091        24.40981         0.76022
C         46.44796        25.15710         0.88463
C         47.70611        27.30137         0.96676
C         46.46180        26.57107         0.90020
C         47.66835        28.74222         0.98966
C         46.48316        29.43136         0.75708
C         47.70137        31.68169         0.64917
C         46.54303        30.83333         0.18574
C         47.71736        33.08670         0.47401
C         46.49600        33.82846         0.47791
C         47.74085        35.93476         0.89453
C         46.49607        35.21275         0.77597
C         47.73341        37.39070         0.91489
C         46.51694        38.09340         1.02120
C         47.68639        40.21801         0.46755
C         46.46333        39.50762         0.79405
C         47.67069        41.64367         0.30066
C         46.44391        42.35832         0.36029
C         47.63182        44.45525        -0.00682
C         46.41955        43.76454         0.27145
C         47.54940        45.88796        -0.33647
C         46.35063        46.66108         0.06641
C         47.57774        48.77937        -0.41554
C         46.34933        48.06559         0.02611
C         47.64089        50.29299        -0.20637
C         46.42483        50.98780         0.26471
C         47.73808        53.10623         0.52623
C         46.45228        52.38873         0.39418
C         47.71329        54.56144         0.37791
C         46.53250        55.22899         0.29913
C         50.24046        20.17722         1.11172
C         48.98995        20.82330         1.11583
C         50.26069        23.00661         1.26188
C         48.95621        22.27565         1.50699
C         50.21573        24.48262         1.32273
C         49.00256        25.19027         0.82087
C         50.20178        27.38011         1.02476
C         48.95013        26.64913         0.99324
C         50.21076        28.78244         1.15084
C         48.93130        29.46708         1.27197
C         50.20730        31.62694         0.76587
C         48.90818        31.01510         1.13161
C         50.19719        33.11158         0.34620
C         48.94118        33.82815         0.53925
C         50.24900        35.91198         0.91278
C         48.94959        35.21820         0.76374
C         50.23225        37.44181         0.84997
C         48.94125        38.12130         0.71202
C         50.16258        40.23037         0.22816
C         48.92642        39.52191         0.46429
C         50.13699        41.63089         0.02229
C         48.89555        42.34975         0.08930
C         50.10343        44.48313        -0.33706
C         48.86247        43.76525        -0.10815
C         50.11768        45.88173        -0.47624
C         48.85452        46.62205        -0.58521
C         50.07681        48.77144        -0.56578
C         48.87216        48.08307        -0.46830
C         50.11364        50.21996        -0.45379
C         48.95770        50.92482        -0.11317
C         50.29533        53.03231        -0.02229
C         49.05251        52.32965         0.31317
C         51.43237        20.87800         1.25390
C         52.77591        23.00993         1.39905
C         51.45972        22.30814         1.30937
C         52.79660        24.55603         1.36361
C         51.49275        25.28711         1.33168
C         52.68236        27.42335         0.75804
C         51.44872        26.70760         0.93866
C         52.77852        28.78742         1.02818
C         51.50154        29.47732         1.34202
C         52.76085        31.76289         0.94366
C         51.48312        31.01171         1.21736
C         52.69358        33.01269         0.05824
C         51.46616        33.82972         0.34080
C         52.71787        35.92744         0.40730
C         51.50093        35.20117         0.54315
C         52.72734        37.39417         0.51939
C         51.46440        38.15053         0.48694
C         52.63427        40.22126        -0.18503
C         51.42389        39.51490         0.19556
C         52.58295        41.63259        -0.40544
C         51.35790        42.34475        -0.25264
C         52.56064        44.47411        -0.61058
C         51.34178        43.76213        -0.39599
C         52.57012        45.90030        -0.65010
C         51.33743        46.61474        -0.57823
C         52.55505        48.74825        -0.76044
C         51.32717        48.04235        -0.65778
C         52.55943        50.19143        -0.81591
C         51.36985        50.91247        -0.60774
C         51.37122        52.35248        -0.48916
C         55.18645        23.10779         0.94407
C         54.03700        22.37528         1.01687
C         55.19796        24.54909         0.82599
C         53.97464        25.21497         0.80105
C         55.60488        27.50046         1.38461
C         53.75666        26.54971         0.15614
C         55.39894        28.84334         0.98743
C         54.10446        29.54058         1.42042
C         55.22796        31.70294         0.36153
C         54.07203        31.03830         1.01901
C         55.18545        33.06798         0.03508
C         53.96048        33.81326         0.14182
C         55.08158        35.94165        -0.38691
C         53.92623        35.22586         0.10932
C         55.09349        37.32440        -0.54387
C         53.98937        38.12633         0.01712
C         54.99871        40.18850        -0.91043
C         53.84999        39.53105        -0.38919
C         54.97619        41.60886        -1.04753
C         53.77889        42.33111        -0.75885
C         54.98461        44.45583        -1.10909
C         53.77786        43.75394        -0.81870
C         55.02509        45.88519        -1.01470
C         53.80438        46.61606        -0.76335
C         55.05234        48.77928        -0.70433
C         53.78989        48.03047        -0.75926
C         55.00465        50.22166        -0.95097
C         53.81790        50.87243        -1.01312
C         57.54012        24.54809        -0.00633
C         56.45898        25.25680         0.54997
C         57.65645        27.35961         0.06433
C         56.58042        26.67735         0.70629
C         57.64956        28.78898        -0.04657
C         56.47991        29.50007         0.34855
C         57.68569        31.67334        -0.38551
C         56.49090        30.97350         0.27110
C         57.50009        33.05499        -0.87321
C         56.32931        33.73187        -0.55519
C         57.33654        35.84210        -1.61991
C         56.14298        35.12291        -0.99968
C         57.35836        37.31236        -1.56805
C         56.20433        38.02297        -1.15147
C         57.34368        40.14639        -1.71153
C         56.18595        39.45223        -1.23917
C         57.33173        41.57625        -1.81298
C         56.15040        42.30393        -1.45661
C         57.33187        44.42978        -1.88514
C         56.15586        43.72900        -1.47507
C         57.35425        45.85515        -1.82319
C         56.23430        46.55980        -1.28898
C         57.55948        48.68608        -1.51836
C         56.37716        47.98977        -1.00208
C         58.68761        25.19746        -0.44778
C         59.86618        27.28607        -1.03167
C         58.74309        26.60207        -0.46871
C         59.86991        28.64894        -1.13597
C         58.76080        29.44713        -0.69917
C         59.71954        31.50241        -1.76063
C         58.74682        30.84045        -0.96631
C         59.68934        32.86696        -1.98119
C         58.59862        33.68793        -1.56513
C         59.74220        35.83846        -2.13226
C         58.59223        35.09357        -1.77946
C         59.70818        37.21643        -2.25373
C         58.54028        37.98568        -1.96238
C         59.65988        40.14757        -2.50539
C         58.52737        39.42452        -2.05351
C         59.64039        41.52298        -2.61199
C         58.48871        42.27264        -2.26526
C         59.60292        44.45643        -2.78611
C         58.48492        43.71866        -2.32705
C         59.61048        45.84347        -2.76475
C         58.51138        46.56450        -2.25683
C         58.55187        48.00102        -2.14315
O         53.73918        37.91837         1.44272
O         54.27014        26.85420        -0.91393
O         36.91747        53.18591         2.44890
O         48.50668        24.71923        -0.46908
O         32.42578        40.33638        -1.46522
O         40.93728        50.71190         2.80327
O         28.94550        25.92053        -2.11307
O         40.60839        37.66144         2.16196
O         42.48629        53.84268        -0.64364
O         45.16773        19.03019         2.05385
O         29.14226        38.73894         1.25358
O         51.48909        30.40027         2.52166
O         50.35965        36.69449         2.12963
O         36.68253        29.01873         1.69848
O         50.70955        25.06763         2.56656
O         36.32558        24.98599        -1.93915
O         47.99769        46.17062        -1.71137
O         38.78182        30.22104         2.28046
O         41.22767        21.33905         1.96383
O         35.07425        31.21240        -1.85919
O         50.17123        32.00707        -0.63296
O         57.57808        31.56389         1.07843
O         37.66079        40.84625         2.31620
O         52.97654        23.82758         2.60145
O         48.54127        52.61498         1.66533
O         27.46430        46.32490        -2.11179
O         27.66308        26.90880         1.05226
O         48.81267        30.38349         2.42954
O         53.57881        31.90034         2.12556
O         43.27400        24.81454         2.47811
O         33.71783        33.54560        -2.13555
O         37.46232        35.71501        -1.41469
O         32.04150        41.90587         1.69139
O         56.23944        35.30755        -2.45586
O         36.96763        50.60570         2.69469
O         40.98693        31.45491         2.32584
O         45.10229        32.39804        -1.02535
O         47.38291        49.69689        -1.53930
O         32.17937        31.47238         0.59829
O         55.97351        48.37219         0.35145
O         31.60364        38.04543        -2.22171
H         32.17518        38.77860        -2.55273
O         43.41364        50.14856         2.80885
H         42.62043        50.12172         3.39600
O         44.94775        41.36430        -1.18268
H         44.98786        42.24248        -1.61944
O         27.99403        33.09973        -2.68871
H         27.94473        34.03365        -2.98730
O         39.36765        38.32907        -1.24828
H         38.93434        37.57629        -1.70839
O         44.09967        39.80038         2.89754
H         43.33772        39.34867         3.31897
O         41.84353        55.38026         2.59733
H         41.08620        55.83356         3.02417
O         48.83346        22.28019         2.99591
H         49.65811        21.88804         3.35679
O         33.62015        51.25041         2.34883
H         34.41624        51.60633         2.80145
O         54.08326        29.47408         2.86955
H         53.37448        30.10016         3.17062
O         30.50838        31.60120        -2.65892
H         29.69655        32.03641        -3.01693
O         41.82480        35.29968        -1.17618
H         41.08123        34.82732        -1.60898
O         54.92026        26.99791         2.42395
H         54.41908        27.73495         2.86707
O         23.90048        39.65438         1.33637
H         23.92082        40.60667         1.57071
O         52.64081        32.47729        -1.30793
H         52.33866        33.19077        -1.90778
O         45.43230        37.19890         2.92477
H         44.63347        36.73633         3.25704
O         33.01875        24.40789        -2.66919
H         33.04328        25.33076        -3.00124
O         46.86936        30.56663        -1.22398
H         46.50422        31.32767        -1.73740
O         38.99277        46.55921         2.97521
H         39.73649        47.09268         3.32919
O         25.17837        27.46201         1.57246
H         26.06869        27.52012         1.99206
H         22.05339        26.84391        -0.70610
H         22.05796        29.28374        -0.63929
H         22.05057        31.13991        -0.68400
H         22.02747        33.55660        -0.72708
H         22.01599        35.44530        -0.65347
H         22.02022        37.86630        -0.38990
H         22.05342        39.73657        -0.98710
H         22.11913        42.13564        -1.32436
H         22.03891        44.03455        -0.69451
H         22.05304        46.48458        -0.49850
H         25.43821        23.46764        -0.83267
H         23.32809        24.75530        -0.92180
H         25.42965        49.86786        -0.23961
H         23.31537        48.61817        -0.30738
H         27.13623        22.48861         0.02187
H         27.08820        50.82894        -0.82526
H         29.25157        21.29858        -0.18430
H         29.18925        52.03683        -0.59334
H         32.95772        19.12559        -0.32815
H         30.85457        20.34388        -0.27971
H         33.00151        54.08904        -0.53855
H         30.89106        52.91562        -0.71613
H         34.57369        18.20951        -0.89135
H         34.60263        55.04681        -0.27022
H         36.69492        17.02305        -1.01215
H         36.69007        56.23796        -0.10625
H         40.53977        15.02678        -1.48785
H         38.37455        16.19218        -1.44131
H         40.31731        58.52025         0.30702
H         38.20400        57.28131         0.41307
H         42.94508        14.99207        -1.12005
H         42.80367        58.51138         0.32163
H         45.02138        16.09668        -0.37655
H         44.94227        57.31668         0.41867
H         48.70244        18.27344         0.30428
H         46.67197        17.05344        -0.13722
H         48.65821        55.12074         0.37804
H         46.55550        56.32274         0.20491
H         50.29716        19.08513         1.00573
H         50.36814        54.11277         0.16012
H         52.37505        20.31701         1.29202
H         52.28971        52.91364        -0.70453
H         56.13242        22.56529         0.81230
H         54.07972        21.28749         0.86382
H         55.94400        50.78506        -1.02886
H         53.82464        51.95755        -1.17879
H         57.47823        23.46042        -0.13909
H         57.65673        49.76761        -1.35303
H         59.52384        24.61600        -0.86126
H         60.72283        26.69699        -1.38936
H         60.74738        29.14211        -1.57407
H         60.54753        30.92938        -2.19948
H         60.50252        33.31920        -2.56496
H         60.69598        35.31887        -2.30000
H         60.63637        37.73017        -2.53560
H         60.57816        39.61447        -2.78373
H         60.54542        42.03404        -2.96517
H         60.49163        43.93408        -3.16386
H         60.49521        46.39173        -3.11887
H         59.44211        48.53045        -2.51305
