         349
 CSIRO Nanostructure Databank - Neutral Graphene Oxide Data Set
C          1.32957         3.44688         1.01344
C          0.10617         4.10705         0.96151
C          1.21791         6.18504         0.32792
C          0.04745         5.46543         0.64392
C          1.16338         7.62514         0.12402
C          0.09911         8.42212         0.54426
C          1.27450        10.54663         0.04204
C          0.13117         9.82418         0.48711
C          1.32532        12.02529         0.05089
C          0.27947        12.77737         0.62319
C          1.27884        14.87860        -0.11847
C          0.25787        14.16212         0.54095
C          1.22222        16.34287        -0.21987
C          0.05400        17.05371         0.13386
C          1.12979        19.19309        -0.34833
C          0.00452        18.43577         0.04205
C          1.05699        20.64285        -0.44697
C         -0.08165        21.36998        -0.23410
C          1.06893        23.52562        -0.31237
C         -0.08700        22.81784        -0.35421
C          1.14955        25.02622        -0.55655
C         -0.10631        25.79848        -0.22941
C          1.16147        27.78367         0.44375
C         -0.07844        27.09015         0.18363
C          1.19919        29.14313         0.81939
C          3.77587         3.37890         0.92196
C          2.53704         4.09577         0.65777
C          3.68154         6.24388         0.06286
C          2.47174         5.47678         0.26599
C          3.60698         7.73233         0.19370
C          2.36020         8.30368        -0.49005
C          3.58361        10.49947        -0.84681
C          2.35848         9.81221        -0.43589
C          3.46573        11.95536        -1.30565
C          2.40497        12.73261        -0.53605
C          3.48615        14.88756        -1.30682
C          2.37106        14.14282        -0.64562
C          3.52020        16.38745        -1.19869
C          2.34676        17.08994        -0.64098
C          3.57586        19.23605        -0.94028
C          2.33829        18.50580        -0.65614
C          3.57884        20.65037        -0.87703
C          2.28072        21.42477        -0.89622
C          3.61358        23.48978        -0.29112
C          2.34070        22.71279        -0.06923
C          3.61525        24.87656         0.29101
C          2.36632        25.67041         0.05431
C          3.62383        27.71535         0.65794
C          2.38568        27.03582         0.37470
C          3.64393        29.09653         0.97828
C          2.40080        29.78922         1.08117
C          6.31500         3.30641         0.70093
C          4.97788         3.64349         0.29482
C          6.17949         6.33244        -0.26265
C          4.86454         5.68661        -0.35817
C          6.13279         7.71676         0.24234
C          4.86300         8.51331         0.28598
C          6.00331        10.86424        -0.09516
C          4.89567         9.91069        -0.31533
C          6.04515        12.09832        -0.76352
C          4.82617        12.68525        -1.36916
C          6.05065        14.97380        -1.23454
C          4.80866        14.19141        -1.45423
C          6.03052        16.37948        -1.28786
C          4.81545        17.12042        -1.23676
C          6.06301        19.31527        -1.47375
C          4.79797        18.52503        -1.14694
C          6.03756        20.73542        -0.95837
C          4.78762        21.39475        -0.88065
C          6.05766        23.56446        -0.74989
C          4.76530        22.83519        -0.63099
C          6.07529        25.05740        -0.42900
C          4.84187        25.68807         0.02501
C          6.10999        27.72164         0.56695
C          4.86272        27.02633         0.42599
C          6.11696        29.11404         0.94557
C          4.89374        29.76910         1.13887
C          8.71653         3.53272         0.91573
C          7.46534         4.08452         0.49742
C          8.65097         6.32805         0.50765
C          7.46787         5.52560         0.07499
C          8.56039         7.69183         0.73790
C          7.24195         8.24158         0.82316
C          8.45040        10.84469         0.21166
C          7.19574        10.42517         0.58656
C          8.47631        12.32292        -0.04419
C          7.23559        12.87717        -0.71782
C          8.53685        14.96721        -0.96083
C          7.26665        14.24479        -1.04161
C          8.54304        16.33131        -1.06546
C          7.33761        17.10348        -1.53821
C          8.44725        19.19029        -0.66702
C          7.33108        18.56139        -1.12058
C          8.45344        20.63599        -0.34469
C          7.24177        21.41382        -0.66829
C          8.53950        23.52054        -0.37091
C          7.30650        22.81951        -0.54685
C          8.56575        24.94001        -0.19791
C          7.34448        25.69044        -0.05839
C          8.61734        27.63039         0.85803
C          7.32233        27.01105         0.40919
C          8.59883        29.14103         0.92083
C          7.37730        29.79762         1.05689
C         11.16267         3.60850         1.31938
C          9.93139         4.23864         0.98946
C         11.06549         6.43610         0.86954
C          9.91650         5.67520         0.75565
C         11.06133         7.87719         0.65833
C          9.75260         8.58061         0.81572
C         10.91961        10.52500        -0.35787
C          9.70393        10.07686         0.48052
C         10.93359        12.01123        -0.74415
C          9.74272        12.85019        -0.61974
C         11.06677        14.87620        -0.92655
C          9.79332        14.20928        -0.85497
C         11.09236        16.34848        -0.89153
C          9.80649        17.08735        -0.93416
C         10.98274        19.16963         0.02798
C          9.70220        18.45808        -0.34867
C         11.06085        20.63334        -0.14370
C          9.77434        21.36759        -0.16638
C         11.01856        23.50044        -0.44429
C          9.79786        22.82950        -0.36759
C         11.04322        24.93501        -0.34759
C          9.81132        25.60708        -0.12996
C         11.07336        27.80913         0.15037
C          9.78032        27.06902         0.06988
C         11.07670        29.14720         0.78910
C          9.84682        29.80245         1.02598
C         13.62058         3.71142         1.62743
C         12.36517         4.32954         1.47496
C         13.56093         6.60886         1.34813
C         12.29900         5.80690         1.38006
C         13.50779         7.81284         0.45072
C         12.22976         8.55635         0.41323
C         13.50652        10.64184        -0.39291
C         12.26390        10.07325         0.29654
C         13.52830        11.98484        -0.67953
C         12.26328        12.73447        -0.86167
C         13.54589        14.89153        -0.75430
C         12.27220        14.20006        -0.81231
C         13.60026        16.28324        -0.55279
C         12.31557        16.96587        -0.30273
C         13.56578        19.17046        -0.06249
C         12.29383        18.42032         0.02361
C         13.53491        20.55766        -0.03570
C         12.27428        21.27951        -0.18870
C         13.52418        23.49814        -0.24255
C         12.30245        22.71194        -0.71116
C         13.56262        24.95835        -0.69940
C         12.28307        25.66848        -0.30166
C         13.54801        27.70338         0.28025
C         12.32237        27.03265         0.02851
C         13.54075        29.05892         0.76737
C         12.31677        29.73766         1.03324
C         16.09437         3.76593         1.63570
C         14.86039         4.41412         1.59223
C         16.13480         6.59280         1.05370
C         14.87112         5.89455         1.48557
C         16.08583         8.03661         0.53748
C         14.74992         8.41086        -0.11309
C         15.98277        10.49631        -1.03459
C         14.64023         9.74554        -0.88863
C         16.00329        11.99855        -1.11917
C         14.73699        12.74064        -0.95287
C         16.01964        14.91519        -1.17568
C         14.75146        14.12186        -0.93026
C         16.07436        16.17846        -0.29031
C         14.80801        17.01989        -0.37195
C         16.05218        19.16879        -0.13208
C         14.80568        18.41479        -0.14512
C         16.07334        20.55065        -0.01077
C         14.80244        21.27052         0.41324
C         16.10523        23.55049         0.30487
C         14.76960        22.79730         0.21291
C         16.11929        24.88878        -0.50401
C         14.83262        25.67283        -0.27751
C         16.04597        27.79305         0.17645
C         14.79515        26.99300         0.10027
C         16.00697        29.12115         0.84182
C         14.75606        29.71316         1.07359
C         18.56550         3.71932         1.36471
C         17.33244         4.42292         1.32132
C         18.52179         6.31577         0.30702
C         17.34316         5.76420         0.83848
C         18.46259         7.57680        -0.47604
C         17.21249         8.37539        -0.42391
C         18.48466        10.48850        -0.72834
C         17.26163         9.82174        -0.73326
C         18.53448        12.00064        -0.53321
C         17.26132        12.74130        -0.88233
C         18.54803        14.82853        -0.92540
C         17.28058        14.10044        -0.95513
C         18.50382        16.28815        -0.86159
C         17.33539        16.95594        -0.58283
C         18.60325        19.15926        -0.30277
C         17.32415        18.39841        -0.22751
C         18.57989        20.63758        -0.28042
C         17.30691        21.33216        -0.11232
C         18.58607        23.46862        -0.40011
C         17.30420        22.71389        -0.08040
C         18.56171        24.92714         0.03091
C         17.39526        25.63238        -0.13096
C         18.60122        27.82970         0.45617
C         17.36437        27.10774         0.00208
C         18.46241        29.11940         1.16364
C         17.18970        29.74050         1.26045
C         19.75162         4.32973         0.98476
C         20.96945         6.31113         0.02903
C         19.74703         5.62886         0.42720
C         20.98120         7.54134        -0.52663
C         19.73598         8.27063        -0.97698
C         20.93368        10.52910        -0.61624
C         19.71427         9.77678        -0.67560
C         20.97947        11.88229        -0.80413
C         19.73882        12.63172        -1.23133
C         20.98676        14.87763        -1.15647
C         19.74923        14.14493        -1.03057
C         21.01318        16.23203        -1.20925
C         19.77087        17.01993        -1.14049
C         21.08511        19.23528        -0.63702
C         19.82354        18.50607        -0.88322
C         21.04726        20.53409        -0.26704
C         19.80184        21.28607        -0.18293
C         20.95870        23.39213         0.40517
C         19.82959        22.71891         0.01375
C         20.94744        24.80236         0.60997
C         19.80751        25.55396         0.44999
C         20.86055        27.60190         1.60331
C         19.86278        27.02197         0.69625
C         20.75426        28.90367         2.01732
C         19.58125        29.67242         1.78731
O         11.56281        12.20022        -2.06008
O         12.26876        17.40662         1.09538
O         16.06508        11.18286        -2.34085
O         13.79452        23.36551         1.17530
O          4.98526        13.34707        -2.65884
O          3.14682        15.70028        -2.47148
O         10.66576        17.02479        -2.13779
O          7.11706         5.92248        -1.29812
O          6.07481        24.54584        -1.83079
O          9.86622         9.62950         1.86208
O         16.72529        27.79286        -1.14057
O          8.93894        20.98410         0.99421
O         18.17864        18.59765         0.99439
O         12.78086         6.59755         2.56191
O          4.49380         9.77769        -1.73208
O         10.23916        27.82236        -1.08420
O         19.66846        27.80784        -0.54015
O         19.64954        18.00715        -2.24752
O         17.42266         7.46189        -1.54232
O          4.87928         4.40166        -0.90004
O          4.00607         8.32519         1.47058
O         14.08939         7.34329        -0.85452
O         15.74332         6.54834         2.47654
O          7.06812         9.41960         1.54057
O         10.08180        18.62587         1.04847
O          8.44673        12.92080         1.32351
H          7.77850        12.43676         1.85521
O         18.75511        12.19184         0.89192
H         17.97531        11.85133         1.37826
O         12.34057        10.62303         1.63494
H         11.57624        10.26355         2.15135
O         10.76669         9.78297        -1.58648
H         11.23767        10.29289        -2.28889
O          2.34419        22.31275         1.32805
H          2.58101        23.11709         1.85472
O          6.04834        19.46246        -2.93126
H          6.41313        18.62625        -3.31410
O         13.55611        24.94616        -2.16916
H         13.49056        25.87557        -2.47613
O         16.16769        24.50350        -1.89160
H         16.37745        25.29927        -2.42330
O          2.08134        21.80963        -2.28169
H          2.13092        21.00385        -2.83654
O          2.43821         7.90184        -1.88331
H          3.13975         8.45044        -2.30755
O         19.57838        12.41316        -2.65848
H         20.34105        12.81720        -3.12161
O          1.31520        25.15128        -2.02157
H          1.45868        26.10050        -2.22287
O         14.22230         9.42929        -2.23420
H         13.85763         8.51171        -2.22361
O         16.25662         8.92826         1.66188
H         15.97587         8.42544         2.46658
O         19.74846         8.20742        -2.42797
H         18.80985         8.09104        -2.71246
O          8.84912        27.16939         2.23126
H          8.14197        27.54612         2.79631
O         15.99433        15.37472        -2.54738
H         15.99698        14.59052        -3.13558
O          7.46747        17.13730        -3.01116
H          7.47847        16.21027        -3.33448
O         12.39063        22.53732        -2.15086
H         12.69697        23.39431        -2.53934
O         18.66958        23.49654        -1.86989
H         19.48549        23.98705        -2.10547
O          3.63927        24.63686         1.79899
H          4.54477        24.33344         2.02936
O         16.15778        15.70589         1.08138
H         16.29168        16.48354         1.66415
O          2.94435        11.85781        -2.64934
H          3.44138        12.51216        -3.19888
O         14.80827        21.10984         1.87366
H         14.05866        21.65190         2.21307
O         16.30158        23.91748         1.69447
H         16.02786        23.14964         2.24283
H          1.36528         2.39257         1.32315
H         -0.81838         3.56494         1.20352
H         -0.92760         5.97124         0.63780
H         -0.79682         7.95206         0.97539
H         -0.75724        10.36877         0.83330
H         -0.55157        12.27116         1.13188
H         -0.58444        14.69658         0.99894
H         -0.85018        16.51701         0.44933
H         -0.93630        18.94502         0.28967
H         -1.03722        20.87851         0.00091
H         -1.06242        23.31368        -0.46892
H         -1.07532        25.33131        -0.45833
H         -1.02078        27.63938         0.33381
H          0.25393        29.70054         0.89548
H          3.75137         2.63245         1.73086
H          2.40261        30.85631         1.34670
H          6.44524         2.37539         1.27650
H          4.89047        30.83895         1.39628
H          8.72538         2.46640         1.19029
H          7.36713        30.88656         1.21824
H         11.18339         2.51310         1.42276
H          9.86196        30.86786         1.30366
H         13.65693         2.61315         1.69172
H         12.36196        30.74982         1.46208
H         16.12146         2.68145         1.82158
H         14.71775        30.71498         1.52706
H         18.57620         2.68552         1.73884
H         17.12226        30.71654         1.76487
H         20.70388         3.78795         1.07688
H         21.92263         5.79919         0.23249
H         21.94656         7.98163        -0.81591
H         21.87585         9.99005        -0.43554
H         21.95492        12.39045        -0.77403
H         21.93117        14.32123        -1.24334
H         21.96432        16.75908        -1.36534
H         22.04813        18.72849        -0.78868
H         21.99413        21.06702        -0.10598
H         21.89712        22.85591         0.60061
H         21.88588        25.28367         0.91589
H         21.70200        26.98739         1.95197
H         21.54849        29.33855         2.64089
H         19.49957        30.66783         2.24727
