         638
 CSIRO Nanostructure Databank - Neutral Graphene Oxide Data Set
C         23.00147        69.63738        -1.74232
C         22.97371        71.05465        -1.96952
C         21.82114        71.70740        -2.43370
C         23.03180        73.80136        -2.68893
C         21.85368        73.07441        -2.76253
C         25.44018        65.51942        -0.73090
C         25.38323        66.92213        -0.68587
C         24.23443        67.58260        -1.14766
C         25.27997        69.81690        -0.80281
C         24.13044        68.99086        -1.25076
C         25.36628        71.19439        -1.34912
C         24.18534        71.81543        -1.82906
C         25.47914        73.86243        -2.23953
C         24.23420        73.18066        -2.24398
C         27.82402        61.37580         0.31158
C         27.86555        62.69010        -0.05288
C         26.65924        63.43113        -0.31889
C         27.94450        65.58893        -0.56219
C         26.63799        64.81201        -0.46742
C         27.86378        67.04250        -0.13866
C         26.49965        67.66013         0.04948
C         27.77399        69.99653        -0.06926
C         26.47084        69.17941        -0.16209
C         27.82960        71.10327        -1.11551
C         26.58832        71.86030        -1.40824
C         27.95806        73.84686        -2.01577
C         26.65820        73.20548        -1.87948
C         30.32081        57.07200         0.56419
C         30.28625        58.49144         0.64722
C         29.08656        59.19375         0.51446
C         30.32614        61.35861         0.67130
C         29.01251        60.64671         0.87305
C         30.36030        62.74022         0.44456
C         29.18349        63.42460        -0.21638
C         30.34670        65.62566         0.21640
C         29.03943        64.86965         0.26201
C         30.32132        67.03418         0.14794
C         29.03455        67.75173         0.03348
C         30.26358        69.88260        -0.14434
C         29.06154        69.19785        -0.06380
C         30.36210        71.22801        -0.66588
C         29.13989        71.78978        -1.30710
C         30.46228        73.75006        -2.16757
C         29.12460        73.20029        -1.75435
C         32.76631        52.78637         0.80422
C         32.73936        54.20791         0.83888
C         31.53678        54.93399         0.69373
C         32.74850        57.06355         0.98189
C         31.51883        56.34889         0.74535
C         32.74782        58.49228         1.04536
C         31.52812        59.20773         0.88326
C         32.77114        61.34916         0.94214
C         31.53637        60.63618         0.85876
C         32.77679        62.77778         0.89034
C         31.55502        63.47229         0.60075
C         32.74776        65.65120         0.65208
C         31.55133        64.92317         0.45597
C         32.72264        67.05507         0.58380
C         31.52521        67.75360         0.32178
C         32.77338        69.95654         0.16802
C         31.47677        69.25979         0.49720
C         32.81045        71.24479        -0.34571
C         31.57315        71.89140        -0.77405
C         32.97488        73.82884        -1.72090
C         31.60666        73.35195        -1.19451
C         35.29627        48.57138         0.28482
C         35.23128        49.85601         0.71393
C         33.91098        50.56069         0.91717
C         35.19049        52.77308         1.00006
C         33.96912        52.07726         0.86740
C         35.19347        54.18986         1.13311
C         33.97111        54.91584         1.03356
C         35.19575        57.04632         1.31062
C         33.96823        56.34232         1.11407
C         35.19753        58.47996         1.39059
C         33.97608        59.20091         1.24340
C         35.19407        61.37174         1.30541
C         33.98939        60.64582         1.17807
C         35.22238        62.79019         1.18210
C         33.99767        63.48318         1.03338
C         35.25950        65.66265         0.96299
C         33.95521        64.96887         1.26012
C         35.25930        67.05980         0.82533
C         33.97716        67.79802         0.86500
C         35.30131        69.93606         0.35587
C         34.00639        69.29508         0.61673
C         35.30226        71.29199        -0.07423
C         34.08071        71.94456        -0.44227
C         35.34098        73.97296        -0.95189
C         34.14313        73.27326        -0.94289
C         37.87376        44.40323        -0.59421
C         37.82464        45.78936        -0.29215
C         36.59518        46.49393        -0.16400
C         37.77011        48.52690         0.53252
C         36.55164        47.83496         0.21752
C         37.75158        49.89210         0.92217
C         36.44018        50.57044         1.25940
C         37.71430        52.73113         1.27928
C         36.48293        52.02946         0.76696
C         37.66689        54.15910         1.74269
C         36.40833        54.91321         1.37877
C         37.71910        57.01444         1.69476
C         36.40398        56.30166         1.46031
C         37.65685        58.50877         1.45962
C         36.43204        59.18974         1.51892
C         37.69363        61.39354         1.54154
C         36.40885        60.66794         1.82962
C         37.72025        62.80419         1.35839
C         36.48162        63.51068         1.19642
C         37.71062        65.66106         0.95462
C         36.48121        64.93872         1.00694
C         37.69171        67.05630         0.91578
C         36.47844        67.77542         0.77495
C         37.74284        69.87104         0.26402
C         36.51158        69.21323         0.49989
C         37.77736        71.27672         0.01311
C         36.54506        71.98032        -0.18156
C         37.79833        74.03914        -0.65678
C         36.56917        73.35812        -0.56387
C         40.34202        40.27015        -1.52972
C         40.33752        41.64621        -1.28675
C         39.13340        42.34673        -1.05958
C         40.35336        44.54841        -0.95297
C         39.08575        43.72916        -0.81361
C         40.30499        45.83794        -0.18581
C         39.05629        46.49178        -0.04052
C         40.23359        48.53195         0.66385
C         39.01516        47.84728         0.39471
C         40.20173        49.92954         0.93961
C         38.94726        50.61019         1.04303
C         40.16842        52.77144         1.42453
C         38.92547        52.05209         1.29747
C         40.14458        54.21905         1.35714
C         38.93126        54.88228         1.35592
C         40.12925        57.05517         0.80823
C         38.80047        56.29434         0.86222
C         40.12280        58.53459         1.03451
C         38.86665        59.22615         1.36557
C         40.14035        61.33871         1.44344
C         38.88693        60.65109         1.45673
C         40.15967        62.76098         1.61019
C         38.98859        63.50175         1.37269
C         40.25085        65.74746         0.82903
C         38.99597        64.89403         0.72035
C         40.22220        67.10988         1.12875
C         38.90768        67.88170         1.27487
C         40.26561        69.86463         0.42318
C         39.01323        69.06273         0.23146
C         40.29738        71.20854        -0.23518
C         39.00494        71.97123        -0.14615
C         40.27609        74.04213        -0.59744
C         39.02967        73.36239        -0.45826
C         42.82209        36.05245        -2.30382
C         42.78602        37.41831        -2.07017
C         41.57924        38.16478        -1.95324
C         42.79122        40.22617        -1.30845
C         41.55861        39.54099        -1.66730
C         42.83188        41.56770        -1.01407
C         41.64735        42.41161        -1.40504
C         42.75796        44.33788        -0.22608
C         41.61978        43.76150        -0.73590
C         42.75173        45.73420         0.22042
C         41.49955        46.46027         0.20924
C         42.68392        48.50733         0.92843
C         41.47250        47.82746         0.62902
C         42.63929        49.90392         1.13292
C         41.42598        50.62458         1.10898
C         42.61197        52.77849         1.24089
C         41.41161        52.07595         1.28748
C         42.64993        54.23394         1.40907
C         41.38911        54.97844         1.27045
C         42.64320        57.11385         0.96833
C         41.41037        56.34513         1.04522
C         42.62515        58.53846         0.93100
C         41.40694        59.25370         1.13053
C         42.55791        61.45953         0.79308
C         41.36539        60.64962         1.23531
C         42.63508        62.78390         1.51152
C         41.46686        63.31720         2.00308
C         42.71261        65.75068         0.97235
C         41.53313        65.22275         0.39997
C         42.65767        67.14316         1.58408
C         41.40178        67.86570         1.21352
C         42.65364        70.06957         1.19622
C         41.41109        69.26098         0.89421
C         42.70284        71.40251         0.48186
C         41.52921        72.01993         0.06131
C         42.73932        74.11367        -0.32473
C         41.51687        73.41020        -0.31290
C         45.30120        33.24592        -2.71116
C         44.08307        33.95911        -2.67214
C         45.31125        36.00538        -2.12021
C         44.06063        35.32788        -2.38843
C         45.32349        37.37101        -1.81565
C         44.08400        38.19285        -2.05823
C         45.27069        40.05364        -0.73350
C         43.99710        39.39369        -1.14871
C         45.26273        41.49902        -0.45783
C         44.04072        42.21501        -0.54728
C         45.20778        44.19835         0.26573
C         44.01766        43.58739        -0.18211
C         45.14585        45.55019         0.84762
C         43.90999        46.35214         0.67674
C         45.14352        48.43196         1.22891
C         43.94045        47.77279         0.97157
C         45.19328        49.90212         1.36405
C         43.89648        50.65416         1.33116
C         45.14023        52.80373         0.97323
C         43.85154        52.05991         0.78193
C         45.10196        54.23372         0.53057
C         43.94172        54.97890         1.15419
C         45.12207        57.11540         0.75563
C         43.89423        56.43619         0.91202
C         45.13265        58.54920         0.68062
C         43.86992        59.28108         0.78829
C         45.04645        61.45947         0.55041
C         43.84324        60.67039         0.82568
C         45.12887        62.85854         0.98113
C         43.94350        63.52739         1.64332
C         45.12917        65.68457         1.40554
C         43.91819        65.01092         1.22370
C         45.14751        67.16302         1.52087
C         43.91040        67.91962         1.24447
C         45.19713        69.99763         0.95744
C         43.93876        69.27691         1.09204
C         45.18808        71.39413         0.61465
C         43.95013        72.08597         0.38748
C         45.19872        74.14256        -0.13895
C         43.96217        73.46027        -0.03406
C         46.50496        33.87251        -2.45428
C         47.75898        35.93492        -1.89691
C         46.54874        35.26699        -2.14196
C         47.78336        37.30864        -1.55475
C         46.53787        38.02915        -1.47293
C         47.74577        40.05442        -0.75628
C         46.54669        39.38247        -1.03674
C         47.73650        41.41642        -0.27623
C         46.47686        42.14541        -0.14919
C         47.69337        44.21046         0.55099
C         46.45474        43.51305         0.25825
C         47.72425        45.56710         0.83192
C         46.45325        46.24000         1.17460
C         47.72454        48.48886         1.29332
C         46.42893        47.72065         1.37700
C         47.64231        49.94723         0.99836
C         46.45734        50.61090         1.02312
C         47.61875        52.84558         0.63730
C         46.35127        52.04427         0.52283
C         47.63418        54.24270         0.60249
C         46.40090        54.98077         0.68544
C         47.63104        57.10487         0.69074
C         46.38083        56.37992         0.71142
C         47.62145        58.52774         0.67431
C         46.36141        59.22504         0.58545
C         47.60596        61.43366         0.55638
C         46.37324        60.67478         0.36552
C         47.55277        62.81161         0.65739
C         46.33288        63.54103         0.91432
C         47.58994        65.68009         1.25254
C         46.39624        64.98379         1.26630
C         47.74250        67.12955         1.70142
C         46.43765        67.92115         1.60170
C         47.65775        69.99495         0.88206
C         46.42732        69.32798         1.12707
C         47.65960        71.38661         0.56326
C         46.41827        72.08035         0.43564
C         47.65809        74.15684        -0.07410
C         46.42461        73.48083         0.08158
C         48.99065        37.99861        -1.28702
C         50.20388        40.04368        -0.60381
C         48.99252        39.35127        -0.91093
C         50.18217        41.34602        -0.14539
C         48.94386        42.04271         0.01990
C         50.14408        44.23297        -0.01860
C         48.99616        43.43411         0.60988
C         50.17286        45.64704         0.52896
C         48.98695        46.32797         0.83815
C         50.15266        48.52495         0.70388
C         48.98787        47.76448         0.96896
C         50.15594        49.94003         0.54769
C         48.94311        50.71516         0.99204
C         50.10897        52.82803         0.11877
C         48.83023        52.08044         0.35597
C         50.11085        54.28083         0.33887
C         48.88959        54.96206         0.54465
C         50.09679        57.11739         0.63688
C         48.87215        56.40100         0.63825
C         50.08748        58.52121         0.68583
C         48.85931        59.23975         0.67597
C         50.05167        61.38238         0.47760
C         48.86907        60.69403         0.61222
C         49.98772        62.84563         0.14472
C         48.85741        63.51079         0.93742
C         50.14040        65.65861         1.17304
C         48.82186        65.02499         0.67203
C         50.15349        67.15520         0.92961
C         48.93604        67.86259         1.12604
C         50.12266        69.99581         0.77336
C         48.90925        69.28007         0.94417
C         50.13194        71.38330         0.49094
C         48.89436        72.07822         0.36757
C         50.12866        74.16138        -0.09606
C         48.89590        73.48599         0.06559
C         51.46923        42.00593         0.28985
C         52.64648        44.18452         0.12022
C         51.46926        43.51203         0.14099
C         52.69948        45.63478         0.18160
C         51.46095        46.30113         0.64968
C         52.64177        48.54719         0.18876
C         51.45907        47.85322         0.68546
C         52.58246        49.93487         0.01784
C         51.34845        50.64772         0.25730
C         52.56262        52.79471        -0.01535
C         51.37568        52.08149         0.17895
C         52.55803        54.25173         0.05726
C         51.36207        54.94227         0.35363
C         52.61714        57.12621         0.27509
C         51.41205        56.38040         0.80782
C         52.61303        58.50351         0.22290
C         51.38755        59.23444         0.64337
C         52.47021        61.35885        -0.34814
C         51.36601        60.72104         0.48083
C         52.51062        62.87519        -0.18025
C         51.29225        63.58126         0.31339
C         52.59007        65.65082         0.38096
C         51.32444        64.90582         0.60578
C         52.60438        67.13601         0.46849
C         51.34983        67.83778         0.75731
C         52.65655        69.98048         0.59069
C         51.41395        69.29749         1.09394
C         52.62252        71.37866         0.33667
C         51.37712        72.08122         0.29928
C         52.60263        74.16712        -0.19092
C         51.36844        73.48333         0.00643
C         53.84312        46.35444        -0.02914
C         55.00393        48.47855        -0.45355
C         53.86968        47.81084        -0.06251
C         55.00661        49.94343        -0.79061
C         53.77022        50.67253        -0.31114
C         55.01954        52.78287        -0.59375
C         53.77049        52.05536        -0.27112
C         55.01475        54.27899        -0.50255
C         53.78027        54.98643        -0.10638
C         55.05483        57.11950        -0.19843
C         53.82107        56.38727        -0.00498
C         55.05384        58.51123        -0.20608
C         53.82364        59.25042        -0.06511
C         55.05101        61.39963        -0.19028
C         53.80949        60.65343        -0.16394
C         55.06336        62.78292        -0.10485
C         53.82183        63.56589        -0.08613
C         55.11795        65.67554         0.42475
C         53.85936        64.88244         0.66157
C         55.10041        67.11434         0.55090
C         53.89652        67.83659         0.61723
C         55.10673        69.96795         0.31621
C         53.87164        69.26843         0.53762
C         55.08521        71.37756         0.09839
C         53.84384        72.07759         0.08760
C         55.08887        74.17422        -0.31126
C         53.83091        73.49057        -0.15203
C         56.27335        50.67179        -0.40749
C         57.50445        52.81293        -0.31993
C         56.30584        52.05138        -0.42896
C         57.51909        54.22623        -0.32810
C         56.30292        54.98238        -0.35816
C         57.56524        57.07709        -0.29006
C         56.31518        56.38189        -0.30341
C         57.59227        58.51244        -0.25592
C         56.31709        59.24586        -0.60829
C         57.51734        61.37080         0.01101
C         56.32509        60.69538        -0.20688
C         57.54864        62.81085         0.10273
C         56.32432        63.57022        -0.31743
C         57.55201        65.68587         0.24452
C         56.29662        64.99183         0.20266
C         57.55169        67.10616         0.37066
C         56.35499        67.82044         0.46900
C         57.54732        69.97326         0.13609
C         56.33874        69.26641         0.34687
C         57.51820        71.33207        -0.18864
C         56.30619        72.07059        -0.15655
C         57.59701        74.28615        -0.29151
C         56.29363        73.50369        -0.30858
C         58.75260        54.94568        -0.28376
C         60.10720        57.04993        -0.39857
C         58.78104        56.33027        -0.28353
C         60.05649        58.50134         0.03366
C         58.78011        59.20168        -0.03346
C         59.93922        61.31275         0.47178
C         58.78548        60.64712         0.13929
C         59.98703        62.80028         0.69295
C         58.72074        63.51300         0.29952
C         60.04905        65.61397         0.28511
C         58.76104        64.94542         0.22162
C         60.08654        67.08861         0.63168
C         58.85026        67.81596         0.08933
C         60.08166        69.93872        -0.15018
C         58.85784        69.30251         0.48848
C         60.01881        71.21111        -0.66089
C         58.75725        71.96624        -0.67804
C         60.15473        74.07375        -0.64618
C         58.81448        73.48452        -0.74047
C         61.20487        59.15700         0.35012
C         62.45981        61.36231         0.46798
C         61.21027        60.58370         0.82693
C         62.46223        62.69081         0.17848
C         61.16444        63.42401        -0.09006
C         62.51966        65.60601         0.50011
C         61.21486        64.91138         0.19968
C         62.53045        67.05675         0.05379
C         61.33405        67.79433         0.12824
C         62.52467        69.82543        -0.62956
C         61.30424        69.16621        -0.20344
C         62.49457        71.14065        -1.08251
C         61.19970        71.86887        -1.33299
C         62.56829        73.98038        -1.01350
C         61.29461        73.35240        -0.94903
C         63.68803        63.44680        -0.01552
C         64.94823        65.55071        -0.17056
C         63.72366        64.81684         0.03722
C         64.98195        66.91756        -0.26721
C         63.75411        67.69948        -0.25687
C         65.01070        69.74785        -0.87103
C         63.76943        69.07939        -0.58693
C         65.01343        71.11609        -1.21801
C         63.73395        71.81424        -1.59955
C         64.99392        73.96756        -1.31866
C         63.76382        73.29648        -1.25864
C         66.32428        67.60560        -0.35355
C         67.45010        69.72824        -0.98669
C         66.26467        69.05869        -0.75802
C         67.47112        71.13083        -1.24830
C         66.22291        71.82646        -1.33820
C         67.45430        73.94036        -1.58035
C         66.21829        73.26463        -1.46368
C         68.67653        71.84848        -1.39568
C         68.65713        73.23474        -1.57388
O         43.56915        54.63292         2.51465
O         38.76977        68.32993         2.54926
O         53.09113        63.55458        -1.36151
O         51.70675        60.13964         1.77706
O         45.68306        45.55997         2.22327
O         52.57261        66.40479        -0.85909
O         47.16187        48.12445         2.60101
O         28.60653        70.83020        -2.32598
O         54.91270        53.57941        -1.82508
O         44.55941        50.44864         2.60109
O         44.44908        39.23141         0.21981
O         51.67838        47.04265         1.88624
O         45.59470        61.14994        -0.77685
O         58.55110        72.71065        -1.95730
O         45.66807        67.68058         2.83548
O         28.28876        65.64282        -1.92744
O         33.88936        68.72130         2.00401
O         25.43310        69.78560         0.68989
O         40.12180        57.92333        -0.37349
O         49.29621        52.29191        -1.01124
O         44.82326        54.28566        -0.96610
H         44.93144        55.22155        -1.24730
O         33.47109        50.20311         2.25345
H         32.71193        50.77762         2.48730
O         40.37736        44.95900        -2.38382
H         39.54793        45.45592        -2.55434
O         42.32250        61.70989        -0.64391
H         42.46984        60.86570        -1.12146
O         33.75723        65.10773         2.71686
H         33.85450        66.05934         2.93868
O         46.25774        51.86666        -0.94917
H         45.95498        52.73045        -1.32017
O         36.26943        60.71808         3.31614
H         35.33730        60.49750         3.52920
O         41.82405        42.67469        -2.83960
H         41.27602        43.46904        -3.05347
O         26.22085        67.43538         1.46779
H         25.55910        68.11810         1.72875
O         36.30935        50.57169         2.70517
H         35.36047        50.41697         2.92315
O         38.95100        64.51960        -0.72216
H         38.10519        64.04486        -0.87854
O         49.86955        44.30477        -1.44794
H         50.61144        44.77851        -1.87865
O         51.53866        69.34305         2.58000
H         50.71244        68.96161         2.94962
O         41.59818        64.25756        -0.52257
H         40.68593        64.03765        -0.83843
O         60.85934        63.24143        -1.49805
H         61.56617        63.67082        -2.02324
O         50.27383        65.53940         2.62409
H         49.52739        66.05269         3.03764
O         67.21569        66.87875        -1.21170
H         66.89677        66.97522        -2.13235
O         48.73135        65.31245        -0.74312
H         49.10804        64.55496        -1.25683
O         57.82250        74.77471         1.04364
H         57.69022        74.03652         1.67354
O         31.39041        74.12587         0.01986
H         30.74035        73.65457         0.58218
O         51.62076        56.30352         2.26602
H         51.63629        57.22333         2.60912
O         61.14025        56.34138         0.29156
H         60.91384        56.31586         1.24338
O         48.07130        67.04263         3.14175
H         47.19838        67.07993         3.61230
O         37.63967        54.09302         3.22030
H         38.44493        53.61361         3.51092
O         31.27332        69.47351         1.94017
H         32.11848        69.21194         2.38353
O         56.42960        63.73954        -1.78169
H         56.51995        62.84352        -2.17219
O         49.08089        63.24846         2.33986
H         49.75322        63.88973         2.68725
O         38.12886        56.86278         3.07904
H         37.39658        57.16501         3.65543
O         33.23852        73.41495        -3.06410
H         32.39612        73.45285        -3.58056
O         62.59460        65.66204         1.97877
H         63.49068        65.98745         2.21143
O         38.29872        56.17278        -0.49521
H         38.73562        56.89101        -1.01538
O         28.60925        64.82543         1.63790
H         28.38080        65.73665         1.92333
O         61.24316        60.51300         2.31637
H         60.48391        59.95689         2.59499
O         59.00754        67.76391        -1.35669
H         58.17044        68.06030        -1.77166
O         36.63505        51.94480        -0.68779
H         36.74353        52.85595        -1.03432
O         52.04181        61.13946        -1.73292
H         52.61686        61.71620        -2.28849
O         56.29041        59.26715        -2.08825
H         56.23180        58.33559        -2.39155
O         43.58707        51.87435        -0.66203
H         43.81795        52.72326        -1.11043
O         30.66905        73.22781        -3.50104
H         30.35820        72.29692        -3.51821
O         29.52724        63.40669        -1.61799
H         29.08263        64.20423        -2.04539
O         60.11863        67.12971         2.08725
H         60.90498        66.59376         2.36416
O         28.79190        60.65737         2.34585
H         29.57056        60.22819         2.76111
O         42.69319        66.95584         3.03297
H         42.68280        67.84922         3.44138
O         60.19321        63.04691         2.10656
H         60.75344        62.31228         2.46058
O         42.55322        70.39352         2.62697
H         41.68115        70.81616         2.78013
O         60.96224        71.84907        -2.78419
H         60.06022        72.24295        -2.90983
O         49.33259        43.29197         2.01872
H         48.52574        43.01699         2.50249
O         53.85068        64.51069         2.06997
H         53.97080        65.31959         2.61039
O         44.20620        63.60403         3.08841
H         45.05923        64.07093         3.22352
O         40.41085        70.86929        -1.69498
H         40.42799        71.72272        -2.18193
O         39.10713        68.39900        -1.05902
H         39.47040        69.06723        -1.68802
O         63.68032        71.74471        -3.06699
H         62.73275        71.87537        -3.32149
O         52.59905        41.42819        -0.37050
H         52.50004        41.57692        -1.33298
O         58.94899        69.48293         1.92305
H         59.48063        68.73739         2.29958
O         27.76472        70.68667         1.20962
H         26.82785        70.70572         1.51895
O         49.69730        62.89705        -1.29023
H         50.41574        62.39195        -1.74586
O         49.19058        51.02476         2.40708
H         49.07800        50.19751         2.92396
O         41.42628        64.32015         2.91263
H         42.34093        64.55092         3.19723
O         54.96928        49.99446        -2.26896
H         54.94020        50.94279        -2.52448
O         44.23554        38.75862        -3.40282
H         44.23906        38.01502        -4.04161
H         23.05119        74.85887        -2.98865
H         25.52095        74.90686        -2.58294
H         27.98336        74.88097        -2.39306
H         30.43666        74.86462        -2.25077
H         32.97785        74.95794        -1.66395
H         35.36460        74.99875        -1.34958
H         37.80777        75.10311        -0.93636
H         40.26961        75.11118        -0.85419
H         42.74994        75.17912        -0.59738
H         45.20442        75.20225        -0.43474
H         47.65258        75.22736        -0.32855
H         50.12289        75.23781        -0.32389
H         52.58543        75.24923        -0.38957
H         55.07818        75.27036        -0.41059
H         57.50194        75.18961        -0.94728
H         60.24390        75.09731        -0.25240
H         62.60264        75.07928        -0.93009
H         65.02098        75.05738        -1.16149
H         67.46119        75.03572        -1.67627
H         22.11403        69.04389        -2.00984
H         20.88629        71.14060        -2.54972
H         20.93397        73.56344        -3.11329
H         24.54436        64.96280        -1.05448
H         23.40114        66.97166        -1.53002
H         26.85264        60.85748         0.37086
H         25.70058        62.88716        -0.26608
H         29.38444        56.52585         0.37837
H         28.15013        58.63695         0.35879
H         31.81748        52.23843         0.69318
H         30.59460        54.39112         0.52765
H         34.37713        48.04953        -0.02683
H         33.14993        50.18298         0.17512
H         36.93281        43.83203        -0.62237
H         35.65595        45.96383        -0.38343
H         39.38539        39.72576        -1.57540
H         38.18820        41.77926        -1.05473
H         41.87992        35.49001        -2.39852
H         40.62155        37.63912        -2.09477
H         45.28356        32.17172        -2.94367
H         43.13866        33.43008        -2.86552
H         47.44438        33.30164        -2.48113
H         48.70649        35.37921        -1.96174
H         49.94557        37.45596        -1.35147
H         51.16671        39.52119        -0.70470
H         51.60014        41.78712         1.38708
H         53.59361        43.62221         0.12299
H         54.76739        45.82525        -0.30751
H         55.91592        47.90628        -0.68365
H         57.20957        50.10167        -0.30631
H         58.46227        52.27618        -0.24843
H         59.70105        54.38861        -0.28010
H         60.39509        57.03641        -1.48868
H         62.15283        58.59709         0.37280
H         63.41943        60.83839         0.60773
H         64.62171        62.89034        -0.19869
H         65.88815        64.98700        -0.27547
H         66.78478        67.55846         0.67565
H         68.40103        69.17897        -0.92139
H         69.63503        71.31169        -1.35165
H         69.60573        73.77994        -1.68021
