         268
 CSIRO Nanostructure Databank - Neutral Graphene Oxide Data Set
C        -11.19273         0.66440        -0.29560
C         -9.99638         1.47463        -0.29628
C         -8.64894         0.78761        -0.07619
C         -7.49088         1.58685         0.59036
C         -6.19643         0.69981         0.65936
C         -4.92535         1.39239         1.00080
C         -3.73428         0.69234         1.52280
C         -2.41114         1.42423         1.61445
C         -1.08672         0.65937         1.53056
C          0.23580         1.43815         1.34258
C          1.55179         0.67975         0.88201
C          2.31330         1.41675        -0.23494
C          3.53898         0.73724        -1.00910
C          4.90017         1.49163        -0.87267
C          6.21163         0.67940        -0.84176
C          7.39567         1.43914        -0.27015
C          8.74261         0.81853        -0.75650
C          9.90004         1.49379        -0.02177
C         11.08652         0.72739         0.24263
C        -10.19534         2.74316        -0.85477
C         -9.30059         3.78676        -1.17884
C         -7.17441         2.68941        -0.43043
C         -5.78514         3.22494        -0.27955
C         -4.78172         2.69866         0.53098
C         -3.68753         3.58104         1.04492
C         -2.39934         2.93696         1.50552
C         -1.09987         3.71031         1.45071
C          0.21416         2.95657         1.30219
C          1.36256         3.71709         0.65183
C          2.27088         2.91022        -0.23742
C          3.44287         3.61663        -0.92270
C          4.85330         2.97142        -0.64531
C          5.89953         3.60982         0.30923
C          7.28088         2.85383         0.20720
C          8.56588         3.65083         0.43153
C          9.82923         2.82885         0.27574
C         -7.98742         4.03011        -0.51856
C         -7.03813         5.05528        -1.27849
C         -5.66892         4.55079        -0.86936
C         -4.57259         5.47827        -0.45732
C         -3.68774         5.03334         0.67465
C         -2.48545         5.88713         0.97913
C         -1.14901         5.23151         1.23953
C          0.07948         6.01262         0.83489
C          1.24621         5.19155         0.32985
C          2.21397         5.85186        -0.62879
C          3.53295         5.11899        -0.73324
C          4.81738         5.81297        -0.46966
C          6.04698         5.13817         0.12711
C          7.38268         5.73735        -0.24054
C          8.55219         5.06129        -0.12870
C         -7.21268         6.55182        -1.02822
C         -6.16702         7.42512        -0.91969
C         -4.72303         6.96145        -0.82100
C         -3.89723         7.87729         0.10705
C         -2.59991         7.35794         0.64935
C         -1.36493         8.20777         0.55502
C         -0.03526         7.48732         0.52823
C          0.87551         8.14446        -0.54575
C          2.17642         7.34294        -0.77697
C          3.46245         8.03722        -0.40052
C          4.70660         7.26871        -0.12844
C          6.05525         7.97757        -0.09161
C          7.02268         6.97483         0.57735
C         -6.26096         8.86644        -1.16720
C         -5.19647         9.70379        -1.04058
C         -3.97546         9.32058        -0.27924
C         -2.70529        10.09033        -0.33557
C         -1.47967         9.56100        -0.06112
C         -0.21842        10.41840        -0.08515
C          1.07849         9.61796        -0.21690
C          2.27731        10.23452        -0.24176
C          3.59848         9.54926        -0.53851
C          4.74107        10.04099         0.33879
C          5.85888         9.33002         0.56154
C        -11.25555        -0.66011        -0.01836
C        -10.09911        -1.45042         0.49487
C         -8.80721        -0.60477         0.58306
C         -7.61755        -1.42132         0.97411
C         -6.26769        -0.78429         0.80602
C         -5.07429        -1.52660         1.31807
C         -3.77243        -0.81373         1.49777
C         -2.52589        -1.47217         0.95984
C         -1.18658        -0.81777         1.21505
C          0.03936        -1.55353         0.72013
C          1.31567        -0.79985         0.54041
C          2.42248        -1.52160        -0.16832
C          3.62908        -0.76477        -0.62173
C          4.90506        -1.43869        -0.20249
C          6.17553        -0.65584        -0.14897
C          7.46262        -1.37802        -0.03633
C          8.74531        -0.78434        -0.56369
C          9.90870        -1.42371         0.16586
C         11.07165        -0.64973         0.39867
C         -9.86073        -2.74357        -0.26780
C         -8.81817        -3.53332         0.05286
C         -7.76129        -3.02345         1.06205
C         -6.39149        -3.64618         0.62025
C         -5.10287        -3.02327         1.09249
C         -3.81829        -3.71695         0.78986
C         -2.60427        -2.88831         0.47884
C         -1.36428        -3.64381         0.10576
C         -0.08065        -2.87638        -0.00076
C          1.14936        -3.65975        -0.34085
C          2.44431        -3.01989         0.06654
C          3.69678        -3.75877        -0.19303
C          4.96415        -2.93322        -0.16181
C          6.25880        -3.61601        -0.49414
C          7.56015        -2.84033        -0.41627
C          8.71301        -3.59925         0.17551
C          9.86098        -2.82894         0.40827
C         -8.82544        -4.98697        -0.43776
C         -7.58439        -5.80311        -0.11458
C         -6.33448        -5.00632        -0.03589
C         -5.01635        -5.73883        -0.35267
C         -3.83401        -5.17715         0.42427
C         -2.55991        -5.93505         0.39764
C         -1.31296        -5.12703         0.24491
C         -0.01757        -5.86668         0.38844
C          1.19939        -5.18219        -0.19641
C          2.39464        -5.90837        -0.80907
C          3.73152        -5.08625        -0.92380
C          4.93248        -5.83503        -0.31477
C          6.26072        -5.11104        -0.42227
C          7.53181        -5.79814        -0.08364
C          8.65009        -5.05090         0.22440
C         -7.57046        -7.15930        -0.05939
C         -6.31696        -7.94978         0.12453
C         -5.02300        -7.23645        -0.07083
C         -3.76968        -7.99376        -0.47715
C         -2.46996        -7.29779        -0.23578
C         -1.23990        -8.05579         0.12064
C         -0.16358        -7.33889         0.59149
C          1.25934        -8.41742        -1.10384
C          2.45217        -7.42451        -0.92937
C          3.78234        -8.11659        -0.68717
C          4.92389        -7.30813        -0.08962
C          6.24619        -7.96037         0.39554
C          7.48576        -7.31029        -0.29747
C         -6.25192        -9.43576         0.02976
C         -5.10203       -10.11776        -0.13614
C         -3.78033        -9.51772        -0.58237
C         -2.50338       -10.17281        -0.05322
C         -1.27191        -9.52259         0.06121
C         -0.02795       -10.25059         0.06033
C          1.23829        -9.68744        -0.30234
C          2.47594       -10.26804        -0.05667
C          3.76016        -9.59494        -0.35556
C          5.03170       -10.17194         0.17079
C          6.16867        -9.47174         0.32677
O          1.94386         6.46271        -1.91890
O          1.02553        -5.36257         1.26797
O          7.30134         1.71186         1.14238
O         -1.48476        -4.48464        -1.07445
O         -2.79126        -1.77065        -0.45603
O         -8.34434        -0.63022         1.97025
O          1.05703        -1.58015         1.76131
O          6.21085         5.99649         1.38800
O          2.28465        -6.55137        -2.09931
O         -3.19039         1.12528         2.81360
O         -6.40160        -3.76914        -0.84558
O         -1.77152         3.43103         2.70947
O         -4.46427         4.68589        -1.68143
O          1.44440         2.11454        -1.15628
O         -2.11916         8.13808         1.78754
O         -1.93913         5.77952         2.31424
O         -4.15786         7.16389        -2.08266
O         -3.35182        -5.93227         1.60045
O         -8.20446        -3.37071         2.31096
O         -1.01627        -0.34953         2.57487
O          2.74389        -1.43190        -1.58025
O         -5.48271        -7.50764         1.27547
O         -6.02045        -0.20106        -0.50450
O         -4.34584        -3.64582         2.15510
O          0.52087         7.06248         1.77246
O          3.81913         7.59588         0.96830
O         -4.53513        -1.26282         2.64776
O          5.26144         2.47648        -1.92790
O          2.03981         4.68166         1.47614
O          8.01599        -2.64934        -1.83853
O          4.88456        -2.16993         1.07007
O          0.55900         2.24022         2.51041
O          8.88688         1.15404        -2.08544
O          6.27763        -4.40584        -1.71210
O          0.44928        -2.94240        -1.37030
O          6.88170        -0.82346         1.13970
O         -4.50697         8.78657         1.03056
O         -8.13514         0.70149        -1.45281
O          0.48596        -8.22692        -2.01508
O          4.47517        -6.38124         0.96389
O          4.41135         5.59189        -1.83790
O          3.08777        -3.74174         1.14004
O         -7.43975         1.99243        -1.72434
O          4.04198        -9.08096        -1.72919
O         -4.33633         4.58793         1.90163
O         -3.02236        -7.39621        -1.58258
O          8.83500        -1.44160        -1.88536
O          0.07385         8.12050        -1.68670
O          3.97669         9.83434        -1.91678
H          3.20870         9.62615        -2.49161
O          3.14741         3.45744        -2.32234
H          3.76693         4.03604        -2.82328
O          6.42750        -7.68999         1.80230
H          5.71949        -7.06255         2.08589
O         -3.68534        -9.86241        -1.99682
H         -3.15673        -9.14281        -2.42092
O         -0.18752        11.20334         1.11592
H         -0.30002        10.60326         1.88257
O          7.35607        -7.53793        -1.69978
H          8.00335        -6.98519        -2.18350
O          3.92235        -4.75524        -2.29047
H          3.58094        -5.49283        -2.84799
O          3.20858         0.74356        -2.38579
H          3.17693         1.68970        -2.67958
O          6.51756         8.18585        -1.44191
H          5.89462         8.81430        -1.87641
O         -4.77637        -5.55044        -1.75338
H         -5.03470        -4.63029        -1.98638
O         -9.72843         4.64616        -2.07382
H         -8.96946         5.17947        -2.43541
O          5.35775         3.39152         1.61355
H          5.77539         4.02733         2.23481
O          8.58939         3.91208         1.87860
H          8.28663         3.08173         2.31417
O         -7.24919         4.86274        -2.69822
H         -6.44181         5.18858        -3.15748
O         -7.83399         2.11044         1.85369
H         -7.98967         1.35293         2.46598
O          6.46027         0.32684        -2.21507
H          7.32378         0.73715        -2.52292
O         -8.98738        -4.98223        -1.86369
H         -8.18957        -4.55945        -2.24758
O        -10.48216        -1.85380         1.82507
H         -9.72377        -2.39377         2.20723
O          2.46744         0.67874         1.97794
H          2.05832         0.18841         2.72472
O          0.82831        -7.87469         1.35618
H          1.34165        -7.10844         1.72384
H         11.99184        -1.16142         0.71917
H         12.03594         1.26838         0.38079
H         10.70532         3.28167         0.77352
H          9.48738         5.63337        -0.01639
H          7.84070         7.43526         1.17641
H          6.66306         9.74299         1.19069
H          4.63103        11.03819         0.79280
H          2.31127        11.32655        -0.09055
H         -0.28176        11.14246        -0.93867
H         -2.76111        11.11419        -0.73975
H         -5.28892        10.74931        -1.37452
H         -7.19934         9.24794        -1.59968
H         -8.21902         6.96037        -1.22721
H         -8.18091         4.40189         0.51544
H        -11.21153         2.91928        -1.24552
H        -12.11892         1.17636        -0.60109
H        -12.22689        -1.17354        -0.07746
H        -10.66207        -3.12854        -0.91849
H         -9.72582        -5.49841        -0.01020
H         -8.51497        -7.71595        -0.16238
H         -7.18084        -9.99447         0.22639
H         -5.13923       -11.21844        -0.12878
H         -2.49004       -11.27343        -0.12638
H         -0.06034       -11.32503         0.30483
H          2.53152       -11.20530         0.51995
H          5.05492       -11.26661         0.29204
H          7.07933       -10.00528         0.63971
H          8.42517        -7.78797         0.09977
H          9.58067        -5.58094         0.48666
H         10.76542        -3.31737         0.80497
