         240
 CSIRO Nanostructure Databank - Neutral Graphene Oxide Data Set
C        -10.96341         0.85645         1.05589
C         -9.96635         1.63634         0.36093
C         -9.08606         0.92077        -0.59585
C         -8.02870         1.75585        -1.19291
C         -6.21130         0.60037        -1.38307
C         -5.10065         1.50809        -1.15237
C         -3.89091         0.81198        -0.77068
C         -2.58736         1.45095        -1.09894
C         -1.28570         0.70817        -1.29432
C          0.01772         1.43888        -1.26334
C          1.24724         0.60893        -1.02624
C          2.45299         1.29819        -0.48058
C          3.77336         0.64838        -0.58418
C          4.93584         1.32278        -0.12285
C          6.22652         0.63894        -0.16531
C          7.39193         1.30007         0.11841
C          8.71142         0.64005        -0.20493
C          9.92151         1.38779         0.30512
C         11.16854         0.65762         0.24356
C         -9.77885         2.97904         0.59317
C         -8.71565         3.75126        -0.02768
C         -7.69540         3.01837        -0.79129
C         -6.38562         3.67555        -0.99617
C         -5.14546         2.89136        -1.01607
C         -3.88997         3.53005        -0.39467
C         -2.55908         2.89705        -0.80798
C         -1.37480         3.55224        -0.66627
C         -0.05430         2.91288        -0.96500
C          1.20663         3.60653        -0.53992
C          2.42375         2.77857        -0.21404
C          3.74848         3.54853        -0.15041
C          4.88422         2.67118         0.30800
C          6.01822         3.28662         1.00061
C          7.36899         2.59621         0.80457
C          8.60159         3.42546         0.76932
C          9.85732         2.71917         0.62850
C         -8.66766         5.11624        -0.00942
C         -7.64490         5.83657        -0.86020
C         -6.34259         5.05289        -0.88706
C         -5.05716         5.77959        -0.85392
C         -3.82637         5.03570        -0.50862
C         -2.66267         5.68900        -0.19042
C         -1.42008         4.89299        -0.02090
C         -0.17807         5.57675         0.41592
C          1.14642         4.96187         0.06675
C          2.34489         5.48960         0.78349
C          3.63645         4.82973         0.66267
C          4.75741         5.51398         1.09977
C          6.02864         4.76378         1.43672
C          7.28171         5.52174         1.01245
C          8.51879         4.79575         0.79998
C         -7.51489         7.29844        -0.49172
C         -6.34134         7.97999        -0.46066
C         -5.05039         7.26304        -0.64930
C         -3.87769         7.87908         0.08565
C         -2.57456         7.14076        -0.08223
C         -1.39372         7.80349         0.15854
C         -0.21272         7.06792         0.75966
C          1.12115         7.71757         0.45041
C          2.32393         7.01210         0.98265
C          3.60847         7.69587         1.02904
C          4.75177         6.94296         1.27237
C          6.05783         7.63197         1.60828
C          7.25500         6.88301         1.05591
C         -6.24253         9.42181        -0.28734
C         -5.04559        10.07269        -0.20120
C         -3.78048         9.37138        -0.10966
C         -2.56754        10.00106        -0.02481
C         -1.32126         9.26682         0.14622
C         -0.11077         9.92138         0.24102
C          1.18268         9.20187         0.25980
C          2.48171         9.85115         0.53859
C          3.62334         9.13821         0.82967
C          4.93043         9.78277         0.93508
C          6.04835         9.09472         1.23898
C        -10.89571        -0.50465         1.10594
C         -9.82245        -1.27264         0.51276
C         -8.91441        -0.60913        -0.46791
C         -7.66835        -1.42155        -0.97493
C         -6.35086        -0.65397        -0.83100
C         -5.15271        -1.30706        -0.31182
C         -4.02298        -0.41089        -0.18115
C         -2.12059        -1.45253        -0.48603
C         -1.17594        -0.75714        -1.13897
C          0.00398        -1.49252        -1.73964
C          1.25887        -0.73084        -1.29690
C          2.50278        -1.53268        -1.12594
C          3.79289        -0.80966        -0.82388
C          5.09662        -1.47404        -1.15410
C          6.34054        -0.73904        -0.71751
C          7.52227        -1.51755        -0.39996
C          8.67907        -0.82356         0.27127
C         10.00709        -1.51091         0.00955
C         11.20594        -0.69298         0.05320
C         -9.69453        -2.60907         0.79194
C         -8.55067        -3.39264         0.36773
C         -7.51674        -2.79011        -0.31371
C         -6.23095        -3.54520        -0.58991
C         -5.00666        -2.68568        -0.27126
C         -3.71203        -3.45827        -0.43683
C         -2.37026        -2.87112        -0.70334
C         -1.10102        -3.61535        -0.81204
C          0.00741        -2.95814        -1.24800
C          1.24855        -3.73766        -1.48823
C          2.53475        -2.96550        -1.60580
C          3.83478        -3.72258        -1.50321
C          5.12936        -2.98011        -1.30104
C          6.34740        -3.72771        -0.86367
C          7.65109        -2.93682        -0.86979
C          8.75344        -3.64993        -0.07221
C         10.03875        -2.85906        -0.14757
C         -8.48755        -4.79104         0.75060
C         -7.36265        -5.56241         0.55406
C         -6.14240        -4.91751         0.07594
C         -4.95083        -5.57448         0.17888
C         -3.64788        -4.81544         0.22939
C         -2.40163        -5.65956        -0.04077
C         -1.20014        -5.12036        -0.82142
C          0.14767        -5.71010        -0.47548
C          1.30060        -5.11535        -0.92275
C          2.61006        -5.74453        -0.72973
C          3.79159        -5.14541        -1.08283
C          5.11376        -5.89144        -1.24251
C          6.34765        -5.09458        -0.79318
C          7.58788        -5.84660        -0.55240
C          8.91858        -5.10439        -0.53309
C         -7.29251        -6.93656         1.01218
C         -6.12635        -7.65812         0.98526
C         -4.87794        -7.06834         0.37401
C         -3.61259        -7.51335         1.12452
C         -2.38478        -6.91295         0.47586
C         -1.10339        -7.62779         0.70716
C          0.17588        -6.96729         0.29698
C          1.39595        -7.77383         0.27252
C          2.63636        -7.05123        -0.01720
C          3.90931        -7.82572         0.06461
C          5.10064        -7.32786        -0.68486
C          6.38456        -8.02055        -0.35033
C          7.61221        -7.19865        -0.39838
C         -6.01720        -9.02929         1.42239
C         -4.81527        -9.68749         1.46256
C         -3.55456        -9.03024         1.20586
C         -2.36832        -9.72586         1.14751
C         -1.08812        -9.08668         0.93777
C          0.12231        -9.75321         0.96620
C          1.38833        -9.10137         0.68429
C          2.64322        -9.82606         0.78002
C          3.85429        -9.25190         0.46877
C          5.13925        -9.88183         0.72120
C          6.31792        -9.25381         0.47015
O         -7.26399         1.09446        -2.16638
O         -1.47726        -5.47723        -2.21158
H         -2.25065        -4.93059        -2.49239
O          8.29533        -3.65251         1.31301
H          8.96625        -4.11895         1.85491
O         -7.88917        -1.67914        -2.38392
H         -8.43460        -0.93018        -2.72712
O          3.04455        -1.52596         0.24630
O         -6.18665        -3.84849        -2.01680
H         -6.62711        -3.10433        -2.49368
O          5.26796        -6.00041        -2.67852
H          5.69516        -6.87341        -2.85453
O          3.53880        -6.94227         1.17550
O          9.51947        -5.14566        -1.82783
H          9.03506        -4.50541        -2.40185
O         -9.71400        -0.01289        -1.53873
O          8.85449         0.57070        -1.64855
H          8.85196         1.48210        -2.00734
O         -8.16386         5.83486        -2.23531
H         -7.45561         6.19721        -2.81006
O          1.44336         4.80263        -1.36446
O          1.82518        -3.39079        -2.79358
O         -2.90103        -0.87055         0.51094
O          4.70350        -3.40753        -2.63855
O          2.05121         6.08942         2.07215
O         -3.51912        -4.42594         1.64125
H         -3.59793        -5.25461         2.18492
O         -0.02880        -1.49622        -3.17109
H         -0.81086        -2.00471        -3.46861
O          5.66642        -8.26267        -1.64496
O         -4.73920        -7.63593        -0.96300
H         -5.46393        -7.27997        -1.51947
O          0.11972         2.41903        -2.33690
O          6.21531         7.57646         3.06068
H          6.15513         6.61999         3.31146
O         -3.26394        -3.31104        -1.83393
O          8.44569        -0.82780         1.70437
H          8.30152        -1.77140         1.95831
O         -0.41652         7.20536         2.18760
H         -0.76783         6.34392         2.51439
O         -4.21656         7.67758         1.50196
H         -3.50725         8.09032         2.03990
O         -2.12453         1.07221        -2.44661
O         -3.70333        -7.01613         2.49245
H         -2.87107        -7.25995         2.95209
O          2.17972         1.88159         0.89685
O         -4.02652         3.23767         1.03783
H         -3.28247         3.67445         1.50743
O          6.63217         2.47979         2.07183
O          1.27653         8.21507        -0.89318
O          8.06491        -2.88105        -2.27127
H          7.40417        -2.32231        -2.74489
O          6.05258         4.78401         2.89797
H          6.44905         3.92278         3.18154
O          4.06149         3.96029        -1.51625
H          3.28065         4.46238        -1.85608
O          5.88525        -0.81352        -2.17384
O         -0.93511         4.78578         1.39558
O         -0.32653        -6.84933         1.70353
O         -4.82761         6.74804        -1.98341
H         12.17699        -1.20667        -0.01751
H         12.10775         1.21923         0.36340
H         10.78614         3.27463         0.83471
H          9.44084         5.38862         0.69221
H          8.18077         7.45021         0.86485
H          7.01107         9.62560         1.30148
H          4.98680        10.86189         0.72437
H          2.54308        10.94653         0.44515
H         -0.09235        11.02232         0.23454
H         -2.51499        11.09856        -0.10178
H         -5.02893        11.17230        -0.15276
H         -7.17782        10.00175        -0.28484
H         -8.46050         7.84948        -0.36333
H         -9.44080         5.69905         0.51271
H        -10.46093         3.50205         1.28099
H        -11.75120         1.38785         1.60959
H        -11.64112        -1.06062         1.69426
H        -10.43379        -3.09231         1.44895
H         -9.37599        -5.23368         1.22551
H         -8.20502        -7.38717         1.43402
H         -6.93917        -9.56587         1.69441
H         -4.79387       -10.75703         1.72331
H         -2.38464       -10.82114         1.26705
H          0.13628       -10.83154         1.18708
H          2.61416       -10.86842         1.13250
H          5.13941       -10.85483         1.23568
H          7.26655        -9.71616         0.78184
H          8.57646        -7.70102        -0.22036
H          9.61553        -5.63474         0.17176
H         10.98983        -3.38855        -0.31485
