         276
 CSIRO Nanostructure Databank - Neutral Graphene Oxide Data Set
C        -11.02540         0.47040        -0.02793
C         -9.82416         1.27620        -0.21691
C         -8.56394         0.82706         0.39549
C         -7.36322         1.70889         0.26643
C         -5.99892         1.06982         0.53677
C         -4.78228         1.57212        -0.20220
C         -3.60675         0.88953        -0.31264
C         -2.44932         1.52009        -1.03259
C         -1.17897         0.77176        -1.21182
C          0.11598         1.54027        -1.12635
C          1.39225         0.74803        -1.12765
C          2.70249         1.47028        -1.26750
C          3.97492         0.71111        -1.60211
C          5.09518         1.43618        -0.83409
C          6.43213         0.69552        -0.90539
C          7.57144         1.40922        -0.24428
C          8.63235         0.67046         0.55391
C          9.99862         1.37864         0.34646
C         11.04862         0.60136         1.12179
C         -9.89200         2.34193        -1.06001
C         -8.74804         3.21764        -1.40273
C         -7.48822         2.95592        -0.60142
C         -6.17797         3.59849        -0.93849
C         -4.85637         2.97449        -0.70364
C         -3.68328         3.68387        -1.32073
C         -2.36086         3.03056        -1.08251
C         -1.10461         3.76333        -1.46406
C          0.15474         2.95295        -1.60654
C          1.35871         3.43876        -2.02774
C          2.67989         2.92991        -1.62540
C          3.95041         3.76426        -1.90177
C          5.14702         2.92125        -1.31079
C          6.37873         3.63484        -0.91628
C          7.45979         2.78871         0.43053
C          8.75143         3.57532         0.50527
C          9.90929         2.86934         0.64938
C         -8.37933         4.21678        -0.30143
C         -7.57013         5.46430        -0.65407
C         -6.31153         5.03989        -1.33494
C         -5.07731         5.93116        -1.33352
C         -3.77647         5.15201        -1.57022
C         -2.53874         6.04450        -1.63287
C         -1.19211         5.24958        -1.81645
C          0.03201         6.12321        -1.66807
C          1.40600         5.57842        -1.74727
C          2.49240         5.87765        -0.99333
C          3.86108         5.24795        -1.25470
C          5.06327         5.93770        -0.62082
C          6.58773         5.55991        -0.75225
C          7.49400         5.75633         0.45440
C          8.58583         4.99654         0.80019
C         -7.48542         6.69575         0.17183
C         -6.27428         7.22711         0.51876
C         -4.98540         6.66840        -0.00231
C         -3.65932         7.27254         0.37286
C         -2.46701         7.08046        -0.51445
C         -1.36995         7.90327        -0.44103
C         -0.07299         7.50102        -1.07450
C          1.20584         8.07413        -0.49375
C          2.35087         7.11596        -0.16662
C          3.50370         7.59218         0.65920
C          4.81872         6.79643         0.66391
C          6.03547         7.63270         1.05702
C          7.28191         7.06256         1.03908
C         -6.16491         8.36834         1.41821
C         -4.98558         8.89280         1.80920
C         -3.61388         8.38135         1.42227
C         -2.71752         9.53721         0.94159
C         -1.36163         9.02577         0.50656
C         -0.22434         9.62094         0.93398
C          1.12376         9.40868         0.28345
C          2.30775         9.70051         1.16603
C          3.46600         8.99141         1.17683
C          4.65920         9.54334         1.78122
C          5.86144         8.91678         1.69067
C        -11.01668        -0.64341         0.71695
C         -9.77926        -1.09433         1.44163
C         -8.50389        -0.40407         0.98358
C         -7.23667        -1.09851         1.49923
C         -5.86228        -0.31223         1.25034
C         -4.72993        -1.12520         0.58061
C         -3.39137        -0.37091         0.55224
C         -2.17158        -1.23433         0.12088
C         -1.06609        -0.63319        -0.68724
C          0.05556        -1.45233        -1.27815
C          1.34837        -0.70280        -1.49753
C          2.64177        -1.47662        -1.60332
C          3.93319        -0.78121        -1.35894
C          5.14405        -1.45589        -1.08238
C          6.37554        -0.78489        -0.87114
C          7.64516        -1.50318        -0.57144
C          8.76133        -0.78979         0.15253
C          9.71605        -1.56118         1.07131
C         10.94846        -0.71671         1.36031
C         -9.67185        -2.59605         1.40994
C         -8.50705        -3.27203         1.30420
C         -7.22510        -2.58126         1.08524
C         -6.09014        -3.29445         0.81616
C         -4.79241        -2.61955         0.50557
C         -3.52325        -3.45247         0.46068
C         -2.14080        -2.75521         0.39018
C         -1.26575        -3.49356        -0.72856
C          0.06675        -2.88467        -0.98906
C          1.33624        -3.66628        -0.83430
C          2.55237        -2.97227        -1.43911
C          3.85683        -3.69444        -1.28257
C          5.15040        -2.94790        -1.15004
C          6.37409        -3.72507        -0.73588
C          7.65497        -3.00228        -0.46757
C          8.71191        -3.70535         0.28818
C         10.01856        -2.97139         0.51832
C         -8.56033        -4.77518         1.46591
C         -7.48996        -5.42661         0.57478
C         -6.09986        -4.81115         0.93035
C         -5.02703        -5.52805         0.10734
C         -3.65773        -4.90523         0.07118
C         -2.58500        -5.64457        -0.75011
C         -1.18246        -5.03486        -0.40610
C          0.02851        -5.80168        -0.96247
C          1.21324        -5.15523        -1.20956
C          2.49483        -5.93218        -1.25314
C          3.77865        -5.17703        -1.02203
C          4.83623        -5.72417        -0.11015
C          6.16121        -5.02218        -0.01930
C          7.36014        -5.76787         0.40534
C          8.56595        -5.07652         0.55809
C         -7.49602        -6.92692         0.57539
C         -6.25404        -7.70807         0.86772
C         -5.09162        -7.02074         0.09736
C         -3.93143        -7.92205        -0.32980
C         -2.60433        -7.17595        -0.61034
C         -1.31588        -7.92856        -0.50536
C         -0.00121        -7.24214        -0.65115
C          1.14203        -7.98250        -0.51826
C          2.46505        -7.45712        -1.01688
C          3.57357        -7.97275        -0.08557
C          4.70180        -7.12938         0.39851
C          5.90401        -7.69669         1.15884
C          7.23040        -7.27546         0.49232
C         -6.25798        -9.19356         0.57410
C         -5.09203        -9.85920         0.58605
C         -3.77937        -9.09643         0.66592
C         -2.54598        -9.91688         0.39223
C         -1.34962        -9.32583         0.02172
C         -0.12348       -10.01565         0.15811
C          1.13114        -9.37731        -0.05525
C          2.30606       -10.06359         0.22737
C          3.68011        -9.49177        -0.02000
C          4.73849        -9.94527         0.96016
C          5.76388        -9.18944         1.37397
O         -3.86633         4.19846        -2.67954
O          4.70566        -3.44612        -2.44675
O          2.39613         6.82816         1.28016
O          0.44870        -0.96613        -2.61953
O         -4.97392        -1.75667        -0.70077
O         -6.63608         1.97702         1.48883
O          5.10620        -4.81467         1.00789
O         -0.57730         5.81275        -2.98512
O         -7.43602        -1.19986         2.90066
O         -1.55768         3.64083        -0.03992
O          8.86855        -1.01389        -1.26675
O          3.48847        -5.76435        -2.33112
O          2.48714        -2.39927        -2.75740
O         -3.39643        -4.51974         1.45550
O          7.11829         5.83100        -1.85451
O         -5.52670        -6.21341        -1.06846
O         -2.01557        -7.77969        -1.81020
O          1.48433         4.61459        -2.75997
O          4.60589         6.31360        -1.94166
O         -2.06262         0.94176        -2.34283
O          0.82368         8.35236        -1.87204
O         -5.42111         3.79957         0.35387
O         -4.12600         6.01100         0.97393
O          6.37755         3.16513        -2.12720
O          6.77045         2.81630         1.49873
O          7.56569         1.25565        -1.66202
O          0.76225         1.14897         0.13103
O          7.39695        -3.71301        -1.75599
O         -0.97554        -0.65192         0.76891
O          2.74467         2.49864        -0.22881
O         -7.39826         5.57828        -2.14131
O          3.48214        -7.30908         1.21152
O         -3.54054        -8.57982         1.99485
H         -4.41992        -8.34508         2.40112
O          7.20534        -7.77954        -0.85053
H          8.03291        -7.51951        -1.30521
O         -5.99576        -7.65913         2.30646
H         -5.94853        -6.70320         2.58608
O         -0.91129        -5.23490         0.99660
H         -1.67218        -4.89056         1.54005
O         -3.08198         0.08509         1.86713
H         -2.16528         0.43864         1.86325
O         -2.92711        -5.41299        -2.12549
H         -2.54727        -6.15919        -2.64561
O          1.61612        -3.71731         0.60852
H          0.86053        -4.19327         1.03904
O         -3.34014        10.19909        -0.16712
H         -3.20604         9.66057        -0.97516
O         -4.34977        -8.53184        -1.56280
H         -4.56672        -7.80769        -2.18922
O          5.91544        -7.08604         2.46354
H          4.98386        -7.03415         2.77060
O          4.71555         5.79307         1.70060
H          3.76583         5.73400         1.96357
O         -7.86993        -5.02152        -0.75877
H         -7.20741        -5.40455        -1.38177
O         -2.69878         6.85947        -2.80722
H         -2.92684         6.27136        -3.55827
O         10.73496        -2.90774        -0.71551
H         10.22632        -2.32245        -1.32962
O         -5.22240         6.91766        -2.36486
H         -6.14375         6.84595        -2.70963
O         -1.56119        -2.90598         1.67980
H         -0.94074        -2.15275         1.82421
O         -5.78596        -5.05723         2.32457
H         -6.53229        -4.69354         2.86418
O          8.28116         0.70535         1.94465
H          7.63707         1.44840         2.11434
O          4.14559         3.92347        -3.28825
H          4.71750         4.70929        -3.43530
O         -9.96232        -0.73155         2.83842
H         -9.04764        -0.83006         3.24006
O          2.60873        -8.08290        -2.32174
H          3.12736        -7.45990        -2.88692
O         -2.99326         7.84213         2.60853
H         -3.37314         6.94511         2.74567
O          4.16989         0.90519        -3.02378
H          4.78540         0.22164        -3.36382
O          4.10905       -10.01041        -1.30736
H          3.52194        -9.59904        -1.99182
O          4.83431         1.33831         0.57550
H          4.06756         1.90557         0.82172
O          1.19869        10.50461        -0.67964
H          0.84826        10.15607        -1.53505
O         -8.34104        -5.11250         2.84353
H         -8.88486        -4.51023         3.39371
O         -5.36479         0.00597         2.54701
H         -6.08545        -0.22739         3.19198
O         -2.04524        -3.19039        -1.90673
H         -1.53097        -3.41233        -2.71101
O          9.04234        -1.81107         2.32306
H          8.74840        -0.93676         2.67804
O         10.32004         1.26040        -1.05718
H         11.15446         1.74226        -1.22969
O         -8.75155         3.49517        -2.77182
H         -8.21743         4.30342        -2.95253
H         11.77032        -1.23149         1.88359
H         11.96915         1.13354         1.41353
H         10.85345         3.40635         0.84285
H          9.31738         5.44406         1.49602
H          8.12678         7.58157         1.52070
H          6.75995         9.39809         2.10461
H          4.58200        10.52996         2.25974
H          2.30527        10.70356         1.62093
H         -0.29944        10.47084         1.63034
H         -2.60465        10.28521         1.76300
H         -4.98974         9.74111         2.51098
H         -7.10413         8.80353         1.79365
H         -8.40680         7.12749         0.59456
H         -8.99982         4.24226         0.60859
H        -10.84278         2.56213        -1.56812
H        -11.94376         0.80467        -0.53401
H        -11.93518        -1.23080         0.86496
H        -10.60320        -3.16089         1.58331
H         -9.57220        -5.15517         1.15097
H         -8.32810        -7.41374         0.04048
H         -7.21820        -9.72269         0.48271
H         -5.06877       -10.95138         0.45061
H         -2.52655       -10.95515         0.76134
H         -0.13452       -11.05368         0.52372
H          2.23482       -11.11580         0.54587
H          4.71329       -11.01159         1.23583
H          6.52265        -9.63843         2.03482
H          8.10209        -7.70938         1.05416
H          9.43717        -5.62378         0.95301
H         10.64774        -3.53266         1.25187
