         620
 CSIRO Nanostructure Databank - Neutral Graphene Oxide Data Set
C         23.16708        27.38486        -1.09736
C         23.19904        28.76309        -1.21120
C         23.23878        31.68791        -1.33858
C         23.26117        33.05562        -1.44310
C         23.37112        35.95919        -1.92978
C         23.46891        37.26499        -2.31555
C         23.78098        40.10691        -3.18179
C         23.70670        41.44503        -2.98314
C         23.39931        44.30278        -2.05204
C         23.33433        45.68625        -1.89791
C         25.51790        24.54451        -0.51961
C         24.34351        25.24495        -0.75069
C         25.67452        27.33353        -1.11917
C         24.35267        26.64059        -0.93023
C         25.63208        28.81128        -0.84975
C         24.41691        29.50494        -1.04916
C         25.63553        31.64675        -0.82872
C         24.42104        30.94261        -1.05751
C         25.65329        33.07910        -0.90612
C         24.46494        33.79479        -1.24771
C         25.69055        35.91510        -1.10833
C         24.49757        35.21949        -1.40187
C         25.70353        37.39555        -1.25258
C         24.68395        38.02281        -2.13385
C         26.17309        40.05706        -2.51173
C         24.84876        39.31627        -2.57645
C         25.91247        41.39498        -1.74743
C         24.64353        42.12548        -2.05130
C         25.76610        44.31889        -1.44114
C         24.59358        43.60066        -1.83837
C         25.72560        45.74963        -1.35409
C         24.48941        46.42840        -1.56928
C         25.59245        48.56759        -1.17837
C         24.45285        47.85175        -1.45401
C         27.96320        23.07434         0.09480
C         27.96846        24.48327         0.01185
C         26.77105        25.21620        -0.34104
C         28.03031        27.33334        -0.20051
C         26.83295        26.61609        -0.48047
C         28.04487        28.77012        -0.24929
C         26.83186        29.50023        -0.54675
C         28.05002        31.63240        -0.24984
C         26.83755        30.92524        -0.53065
C         28.07675        33.05753        -0.33125
C         26.87277        33.78795        -0.68480
C         28.13160        35.93901        -0.64281
C         26.86498        35.20137        -0.77728
C         28.12987        37.37644        -0.49529
C         26.98142        38.16558        -0.94397
C         28.67223        39.56866        -2.04012
C         27.30962        39.30819        -1.82490
C         28.39714        41.96458        -1.91773
C         27.10085        42.13587        -1.16187
C         28.19124        44.38617        -0.96022
C         26.99789        43.66072        -1.16690
C         28.15639        45.81732        -0.90220
C         26.91083        46.49864        -1.07566
C         28.06196        48.68118        -0.78465
C         26.85566        47.92646        -1.00319
C         28.04914        50.10011        -0.66830
C         30.33274        23.04644         0.62657
C         29.12081        22.37454         0.39111
C         30.38644        24.46000         0.53418
C         29.19104        25.18585         0.23163
C         30.42940        27.33068         0.38350
C         29.21394        26.61827         0.14871
C         30.43866        28.75370         0.36036
C         29.23396        29.47381         0.06701
C         30.43233        31.61381         0.42211
C         29.24285        30.91301         0.07609
C         30.44055        33.04177         0.39873
C         29.28299        33.73341        -0.03570
C         30.53228        35.93088         0.27270
C         29.38584        35.18014        -0.27852
C         30.56011        37.31281         0.19773
C         29.33543        38.13730        -0.06669
C         30.75289        40.09791        -0.63452
C         29.65454        39.29675        -1.00048
C         30.76181        41.57312        -0.77564
C         29.59618        42.31990        -1.08923
C         30.63813        44.44290        -0.48679
C         29.47174        43.70098        -0.80064
C         30.58060        45.86538        -0.52390
C         29.36496        46.56124        -0.72110
C         30.50197        48.78187        -0.50896
C         29.32139        48.01167        -0.68623
C         30.47306        50.19575        -0.40122
C         29.20243        50.83047        -0.47664
C         32.73140        20.15142         0.42370
C         31.60457        20.79567         0.76959
C         32.84686        23.02132         1.01069
C         31.54890        22.27315         0.97527
C         32.86368        24.48692         0.79986
C         31.64042        25.18045         0.67221
C         32.86709        27.32359         0.78326
C         31.64681        26.61079         0.61066
C         32.86870        28.75263         0.86847
C         31.64954        29.46325         0.65059
C         32.82444        31.56765         1.11040
C         31.64291        30.88546         0.71737
C         32.72901        33.01844         1.39580
C         31.60581        33.77994         0.82492
C         32.83529        35.92920         1.15786
C         31.65331        35.18526         0.77199
C         32.85872        37.37225         1.00865
C         31.74756        38.06251         0.48564
C         32.98415        40.18451         0.50757
C         31.80882        39.47107         0.15953
C         33.17170        41.60135         0.01279
C         31.88031        42.32102        -0.30265
C         33.05645        44.50242         0.05637
C         31.86333        43.73049        -0.27477
C         33.02703        45.88740         0.02870
C         31.84794        46.59589        -0.47561
C         32.97186        48.86893         0.00268
C         31.81181        48.11674        -0.47408
C         32.95070        50.26252        -0.00874
C         31.70646        50.95128        -0.25802
C         32.94615        53.05115        -0.21235
C         31.74389        52.35626        -0.31270
C         35.31313        18.79564        -0.63579
C         35.21831        20.25596        -0.46158
C         33.97283        20.90249         0.09123
C         35.37095        23.01734         0.59904
C         34.11137        22.24584         0.75755
C         35.35384        24.48445         0.72863
C         34.10501        25.18250         0.81803
C         35.31706        27.32743         1.05245
C         34.10241        26.61528         0.87271
C         35.33255        28.73324         1.20333
C         34.07879        29.45761         1.15518
C         35.25798        31.59215         1.73949
C         34.02711        30.86832         1.34170
C         35.29604        33.07417         1.73621
C         34.00119        33.79643         1.77814
C         35.19489        35.98456         1.91878
C         33.97821        35.24891         1.57167
C         35.21491        37.43535         1.70794
C         34.05087        38.11183         1.32997
C         35.22097        40.29090         1.67106
C         34.06012        39.54216         1.14435
C         35.25187        41.77857         1.57645
C         34.09469        42.43321         0.88467
C         35.41282        44.54387         0.86189
C         34.23619        43.84975         0.54336
C         35.44710        45.96520         0.74792
C         34.15876        46.64560         0.56647
C         35.43259        48.87109         0.57134
C         34.14627        48.16228         0.51752
C         35.40557        50.26710         0.43195
C         34.18790        50.98576         0.19635
C         35.43276        53.13661        -0.06631
C         34.17985        52.39903         0.00980
C         35.52700        54.34304        -0.72580
C         37.77758        18.74910        -0.47019
C         36.50017        18.11669        -0.61854
C         37.81840        20.21843        -0.50539
C         36.52469        21.00878        -0.45010
C         37.78201        23.07962         0.16255
C         36.59203        22.39619         0.05738
C         37.82113        24.50129         0.45472
C         36.57620        25.16090         0.72143
C         37.90026        27.32997         1.02312
C         36.57517        26.57381         1.11646
C         37.81679        28.79564         0.98109
C         36.58706        29.42985         1.22815
C         37.81313        31.64406         1.28741
C         36.59473        30.86261         1.57188
C         37.78262        33.07626         1.53424
C         36.50140        33.74168         1.78459
C         37.78755        35.95730         2.06277
C         36.48942        35.20177         2.07273
C         37.80192        37.39294         1.66310
C         36.51203        38.12453         1.58301
C         37.81280        40.30427         1.88433
C         36.54133        39.57907         1.86721
C         37.74012        41.77913         2.24784
C         36.53668        42.49498         1.66542
C         37.83888        44.58488         1.41518
C         36.59927        43.84290         1.33304
C         37.86074        45.97624         1.17759
C         36.63108        46.70020         0.92729
C         37.89432        48.82680         0.80928
C         36.64474        48.13762         0.80309
C         37.93533        50.24885         0.64592
C         36.66025        51.00789         0.67957
C         37.97350        53.19209         0.22328
C         36.66006        52.51299         0.48564
C         37.96309        54.47690        -0.50795
C         36.77289        55.01494        -0.92760
C         40.22632        15.92740        -0.14384
C         39.03849        16.60215        -0.25669
C         40.23696        18.74908        -0.21577
C         38.99689        18.03584        -0.30700
C         40.25092        20.18871        -0.16660
C         39.06363        20.90852        -0.17224
C         40.26116        23.13131        -0.24932
C         39.08600        22.34223         0.27438
C         40.23664        24.50684        -0.18320
C         39.04151        25.22392         0.28517
C         40.21815        27.44764         0.19188
C         39.08624        26.64242         0.47890
C         40.22068        28.85265         0.41335
C         39.02449        29.53326         0.77603
C         40.19798        31.73927         0.60634
C         38.97098        30.97512         0.89124
C         40.19083        33.21042         0.95648
C         38.97418        33.79704         1.51633
C         40.29070        35.99404         1.56877
C         39.07034        35.21624         1.89764
C         40.26423        37.44904         1.68965
C         39.06650        38.15068         1.79162
C         40.28019        40.29185         1.98719
C         39.03515        39.59785         1.87258
C         40.28372        41.75378         2.38389
C         39.03682        42.50190         1.99273
C         40.31831        44.58598         1.68015
C         39.06459        43.86416         1.70656
C         40.32619        45.98878         1.42662
C         39.10167        46.69565         1.19079
C         40.37180        48.80057         0.88493
C         39.12425        48.10227         0.96196
C         40.39758        50.18617         0.53785
C         39.15458        50.89678         0.44315
C         40.37267        52.80803        -0.70802
C         39.22321        52.35286         0.17511
C         40.40245        54.31584        -0.85301
C         39.25804        55.10089        -0.77886
C         40.53604        57.12372        -1.34232
C         39.33984        56.51231        -1.03352
C         42.69921        15.93796         0.05601
C         41.47045        16.62633        -0.06789
C         42.71197        18.76701        -0.02114
C         41.47220        18.05275        -0.10637
C         42.71532        20.20756        -0.11979
C         41.50304        20.89909        -0.17914
C         42.81171        23.06940        -0.59841
C         41.47604        22.33665        -0.52584
C         42.80133        24.57307        -0.59101
C         41.45155        25.29411        -0.52319
C         42.78938        27.49204        -0.07522
C         41.45334        26.78377        -0.29657
C         42.76177        28.89911         0.39225
C         41.48570        29.65489         0.06934
C         42.67398        31.71810         0.92148
C         41.49510        31.04439         0.64594
C         42.67239        33.16564         1.11205
C         41.48383        33.88417         1.16364
C         42.70725        36.07352         0.96654
C         41.45861        35.31950         1.30398
C         42.72317        37.48429         1.50147
C         41.51104        38.17114         1.69308
C         42.75790        40.29771         1.93549
C         41.50257        39.59369         1.90520
C         42.77195        41.73764         1.98025
C         41.55921        42.45801         2.00840
C         42.79651        44.55986         1.85204
C         41.55337        43.86453         1.84639
C         42.76762        46.02561         1.88042
C         41.54886        46.72448         1.45847
C         42.85468        48.80277         1.02276
C         41.59357        48.10132         1.14725
C         42.86931        50.17736         0.60868
C         41.64031        50.87026         0.35884
C         42.87852        52.85338        -0.41124
C         41.68171        52.20886        -0.20395
C         42.96480        54.12052        -1.15916
C         41.63976        54.91488        -1.34512
C         42.98209        56.96196        -1.73276
C         41.72649        56.36686        -1.49377
C         43.89138        16.63331         0.14413
C         45.18480        18.78043         0.21498
C         43.92844        18.05224         0.11013
C         45.19090        20.20399         0.14831
C         43.97329        20.92553        -0.07938
C         45.20476        23.05532         0.07929
C         44.01163        22.32714        -0.19166
C         45.17458        24.48619         0.20022
C         44.01036        25.27566        -0.08485
C         45.05315        27.26478         0.91779
C         43.99248        26.66534         0.16959
C         45.06739        28.71411         1.28585
C         43.88366        29.53139         0.89129
C         45.13829        31.67621         1.23151
C         43.92389        30.98069         1.05248
C         45.15850        33.13228         1.25673
C         43.93602        33.87552         1.23106
C         45.17518        36.00530         1.32115
C         43.95657        35.28314         1.25561
C         45.18646        37.43955         1.42906
C         43.95583        38.16852         1.57867
C         45.22804        40.28793         1.76667
C         43.97437        39.58694         1.78635
C         45.24881        41.71227         1.85811
C         44.02232        42.43588         1.91395
C         45.28504        44.57296         1.84499
C         44.02252        43.86576         1.90335
C         45.33276        45.97803         1.68302
C         44.10477        46.77203         1.77366
C         45.32408        48.77155         0.96480
C         44.08323        48.13642         1.22934
C         45.33092        50.14802         0.57555
C         44.11830        50.83582         0.43160
C         45.37693        52.75373        -0.60578
C         44.15461        52.33382         0.21556
C         45.42483        54.25068        -0.82339
C         44.22179        54.89827        -1.17718
C         44.17083        56.25778        -1.58622
C         47.61270        18.80155         0.44796
C         46.41279        18.10849         0.38841
C         47.64410        20.20908         0.38409
C         46.41750        20.92520         0.28264
C         47.64073        23.07554         0.56536
C         46.41659        22.35729         0.32391
C         47.61841        24.47527         0.82655
C         46.32124        25.11701         0.76349
C         47.90849        27.45022         1.53953
C         46.08203        26.40230         1.30988
C         47.71494        28.80085         1.31219
C         46.42563        29.49952         1.51844
C         47.59133        31.69014         1.13710
C         46.40299        30.97440         1.29330
C         47.61708        33.12690         1.08097
C         46.37941        33.84641         1.24364
C         47.62437        36.00471         1.22569
C         46.40383        35.28293         1.28133
C         47.64012        37.41020         1.27550
C         46.41634        38.14043         1.43562
C         47.68793        40.26839         1.52520
C         46.44253        39.56687         1.58758
C         47.73603        41.68360         1.70319
C         46.50119        42.41760         1.85867
C         47.76129        44.57308         1.99382
C         46.49818        43.82852         1.88033
C         47.79863        45.98866         1.62152
C         46.56407        46.66915         1.45388
C         47.80086        48.75658         1.04231
C         46.55717        48.06607         1.14881
C         47.81688        50.14646         0.71697
C         46.60476        50.83196         0.41002
C         47.88467        52.86241        -0.12727
C         46.65065        52.16048        -0.04119
C         47.86009        54.24063        -0.53264
C         46.68483        54.89982        -0.82811
C         50.11121        20.27300         0.01445
C         48.89000        20.94430         0.38394
C         50.13742        23.07371         0.62928
C         48.87125        22.33590         0.54713
C         50.07517        24.54142         0.55905
C         48.88980        25.22498         0.85230
C         50.11568        27.41221         0.53541
C         48.98059        26.68466         0.97898
C         50.15066        28.81909         0.58419
C         48.97140        29.53597         1.10154
C         50.08540        31.75653         0.62740
C         48.91630        31.03484         1.14482
C         50.02418        33.12469         0.51283
C         48.82169        33.81639         0.87367
C         50.07632        36.01177         0.65327
C         48.93063        35.26048         1.28295
C         50.06185        37.43859         0.73881
C         48.87734        38.13552         1.11594
C         50.10286        40.27352         0.98697
C         48.88954        39.55271         1.22450
C         50.15830        41.68632         1.19455
C         48.98645        42.35876         1.61000
C         50.30360        44.53372         1.53622
C         49.08126        43.79324         1.89297
C         50.29673        45.94176         1.50065
C         49.03963        46.65975         1.48221
C         50.27013        48.78381         1.22289
C         49.03072        48.06006         1.22059
C         50.25807        50.18738         1.06430
C         49.05658        50.85451         0.69283
C         50.39300        52.83763         0.09200
C         49.09299        52.21573         0.25848
C         51.28169        20.93872        -0.17420
C         52.62594        23.09449        -0.22390
C         51.43535        22.33206         0.24305
C         52.49432        24.54534        -0.45331
C         51.25422        25.25255         0.00629
C         52.36014        27.46347        -0.65582
C         51.45004        26.71123         0.39063
C         52.48126        28.91680        -0.26888
C         51.33876        29.54784         0.24260
C         52.58666        31.78102         0.06010
C         51.35769        31.00644         0.49878
C         52.47037        33.21790        -0.19286
C         51.12491        33.88665        -0.17795
C         52.36912        36.06640        -0.22119
C         51.18898        35.34878         0.16394
C         52.37849        37.48318        -0.11067
C         51.22428        38.16747         0.36375
C         52.43158        40.31397         0.19417
C         51.24732        39.58462         0.51173
C         52.51773        41.69087         0.52126
C         51.40979        42.38976         1.03235
C         52.73115        44.52747         1.15998
C         51.49728        43.81701         1.26061
C         52.79760        45.93318         1.30834
C         51.54294        46.65811         1.40565
C         52.72060        48.81374         1.71611
C         51.49839        48.06897         1.38267
C         52.74412        50.28748         1.58788
C         51.43839        51.04564         1.45146
C         51.51902        52.27234         0.58057
C         54.97566        23.24983        -0.85305
C         53.84011        22.49898        -0.40103
C         54.93929        24.61360        -1.00668
C         53.72152        25.34916        -0.73372
C         54.87345        27.50139        -1.11997
C         53.67574        26.73228        -0.82550
C         54.84818        28.94144        -1.07070
C         53.68174        29.63835        -0.60044
C         54.81708        31.80314        -1.02827
C         53.71424        31.05243        -0.53484
C         54.78298        33.23874        -1.03588
C         53.58095        33.92998        -0.64277
C         54.69887        36.10283        -1.03940
C         53.53570        35.37398        -0.66349
C         54.65101        37.53066        -1.02650
C         53.51905        38.22322        -0.55864
C         54.61344        40.43834        -0.93110
C         53.52802        39.65772        -0.44045
C         54.84533        41.74243        -0.45396
C         53.85008        42.32482         0.47372
C         55.22153        44.52890         0.58207
C         53.97670        43.76791         0.93450
C         55.24281        46.00268         0.77758
C         54.08477        46.63557         1.26667
C         55.22464        48.92110         1.91524
C         54.04450        48.04538         1.76091
C         55.15269        50.27860         1.99687
C         53.90994        50.96603         1.78827
C         57.45333        24.75032        -1.39835
C         56.09085        25.34561        -1.66079
C         57.25839        27.57931        -1.70320
C         56.06839        26.83990        -1.42916
C         57.21578        29.00156        -1.78515
C         56.00242        29.68669        -1.45253
C         57.13189        31.86238        -1.90927
C         55.98382        31.11679        -1.47068
C         57.09645        33.29083        -1.94595
C         55.90477        33.98404        -1.49672
C         57.09001        36.15772        -1.79872
C         55.86578        35.39990        -1.47486
C         57.01088        37.66793        -1.94262
C         55.67809        38.29733        -1.75373
C         56.69926        40.62038        -2.46311
C         55.57588        39.79730        -1.84644
C         56.91357        41.95600        -1.78576
C         55.98473        42.49338        -0.88684
C         57.22313        44.70248        -1.02668
C         56.24624        43.84543        -0.32752
C         57.38398        46.04343        -0.57980
C         56.52614        46.63059         0.42939
C         58.15821        48.50410         0.55965
C         57.02693        47.80239         1.02326
C         58.57127        25.47885        -1.59544
C         59.64837        27.63538        -2.21028
C         58.50279        26.90191        -1.87220
C         59.58190        29.01473        -2.39273
C         58.38293        29.72504        -2.17197
C         59.40541        31.91614        -2.79912
C         58.31621        31.16904        -2.30133
C         59.35279        33.29721        -2.88165
C         58.22098        34.01895        -2.43809
C         59.21886        36.25165        -3.01586
C         58.21743        35.47115        -2.44871
C         59.16383        37.66563        -3.09787
C         58.07100        38.41257        -2.65660
C         59.08885        40.63945        -3.06651
C         57.99726        39.85074        -2.70794
C         59.06263        42.04228        -2.94142
C         58.02921        42.71292        -2.26297
C         59.08552        44.96015        -2.58851
C         58.10245        44.13569        -1.96982
C         59.27243        46.25149        -2.16272
C         58.48351        46.79484        -1.10918
C         58.83777        48.04674        -0.55078
O         36.52780        51.95009         1.81634
O         32.13186        47.35983        -1.71843
O         37.18645        37.66451         0.33827
O         56.41468        43.88661         1.13002
O         43.40792        46.62439         3.05776
O         53.23940        48.25086         2.98252
O         48.53518        44.21254         3.18531
O         57.48859        37.07049        -0.69484
O         33.04987        33.33101         2.79124
O         51.38949        24.90162        -1.42315
O         54.27111        42.67318         1.84907
O         38.93785        53.18964         1.33268
O         55.02659        38.93524        -2.91439
O         37.20196        20.83783        -1.73506
O         52.35072        31.42831         1.49207
O         25.84087        38.18313        -0.00816
O         38.57240        35.61404         3.23723
O         42.25280        54.11946        -2.43742
O         32.15927        22.65506         2.26061
O         35.71441        35.55607         3.25560
O         42.16109        27.41876        -1.40845
O         51.08743        22.57955         1.64312
O         33.78897        47.44136         1.77107
O         35.65327        39.86451         3.02010
O         42.16690        22.55368        -1.80013
O         45.57322        29.03860         2.60629
O         28.45254        42.10469        -3.14180
O         56.45474        48.32011         2.18613
O         46.96056        26.78370         2.31802
O         35.02236        22.28736         1.89294
O         24.82567        41.33813        -0.78843
O         34.23602        20.93087        -1.35019
O         34.08018        42.28656         2.33661
O         49.25196        30.29353         2.36941
O         40.03201        32.74851        -0.44325
O         52.01733        26.73209         1.64695
O         29.15311        35.51526        -1.70106
O         42.12336        25.03279        -1.79093
O         37.40737        26.80230         2.30412
O         35.98126        31.06500         2.89550
O         51.65819        27.47211        -1.92199
H         51.52748        26.52657        -2.18841
O         49.28731        35.20295         2.71580
H         48.57981        34.70791         3.18154
O         37.52787        41.79313         3.71637
H         36.72559        41.23347         3.88097
O         45.19751        52.14983        -1.92408
H         45.93113        52.45464        -2.49779
O         27.28997        41.65561         0.18571
H         26.39049        41.57689         0.57904
O         44.28518        52.95874         1.52329
H         43.56675        52.62062         2.09812
O         40.27982        41.74000         3.86365
H         39.33275        41.67383         4.14881
O         50.70248        33.85215        -1.60518
H         51.33310        34.41048        -2.10972
O         55.86008        25.17016        -3.10922
H         56.56313        25.66989        -3.57664
O         41.42775        29.91059        -1.36959
H         41.62555        29.05159        -1.82171
O         39.31419        22.25346         1.74114
H         39.05140        23.11328         2.13673
O         26.48809        40.38054        -3.87354
H         27.31961        40.91753        -3.89651
O         40.12457        52.26160        -2.03530
H         40.84076        52.61722        -2.61404
O         28.98017        38.74071         1.23166
H         28.24831        39.37838         1.07905
O         42.68680        36.23034        -0.50331
H         43.51942        36.68061        -0.76076
O         33.91598        41.48410        -1.24889
H         33.35333        40.99785        -1.88763
O         51.12079        51.53199         2.80522
H         51.12365        50.75484         3.40415
O         56.23409        40.99527        -3.80400
H         55.75315        40.21029        -4.15606
O         29.14374        39.89110        -3.27811
H         30.08351        40.15428        -3.22579
O         25.94235        27.23040        -2.58674
H         25.92164        26.27451        -2.80931
H         22.20172        26.85712        -1.11359
H         22.24981        29.29611        -1.34878
H         22.28602        31.16756        -1.49931
H         22.32576        33.58151        -1.67367
H         22.42457        35.43317        -2.11103
H         22.60968        37.74862        -2.80102
H         23.00765        39.60375        -3.78241
H         22.90629        42.03016        -3.45795
H         22.49055        43.75363        -2.33539
H         22.38175        46.21171        -2.05461
H         25.45651        23.45695        -0.38910
H         23.38321        24.70821        -0.76378
H         25.52133        49.66125        -1.11200
H         23.49594        48.37255        -1.60209
H         27.03983        22.50718        -0.07606
H         27.09644        50.64306        -0.72312
H         29.07965        21.27917         0.45265
H         29.12722        51.92226        -0.38372
H         32.72480        19.05842         0.30078
H         30.69632        20.20991         0.97622
H         32.92496        54.14606        -0.30047
H         30.82088        52.92916        -0.47470
H         34.37813        18.23879        -0.78764
H         34.62808        54.80361        -1.15783
H         36.46508        17.02334        -0.72590
H         36.76195        55.96276        -1.48326
H         40.23473        14.82827        -0.10993
H         38.10241        16.03065        -0.31350
H         40.57823        58.21359        -1.48173
H         38.43160        57.12205        -0.93512
H         42.69976        14.83897         0.08704
H         43.02221        58.03912        -1.95080
H         44.82334        16.06122         0.24019
H         45.11191        56.80905        -1.71705
H         48.54504        18.23506         0.57294
H         46.44051        17.01394         0.46507
H         48.79793        54.81115        -0.55428
H         46.73799        55.97208        -1.06390
H         50.05557        19.21591        -0.27963
H         50.46748        53.77090        -0.48465
H         52.12527        20.43531        -0.66775
H         52.49344        52.75468         0.41567
H         55.88783        22.68573        -1.08810
H         53.96600        21.42246        -0.21849
H         56.06206        50.85626         2.20409
H         53.91867        52.06454         1.78696
H         57.54116        23.67684        -1.17994
H         58.46431        49.42025         1.08053
H         59.56565        25.01516        -1.50982
H         60.60791        27.11334        -2.33439
H         60.49911        29.55062        -2.67005
H         60.31804        31.40647        -3.13476
H         60.22703        33.83506        -3.27147
H         60.09325        35.76467        -3.46979
H         60.00419        38.17344        -3.59151
H         60.02403        40.16985        -3.40421
H         59.94916        42.60065        -3.27088
H         59.72376        44.55396        -3.38391
H         60.06862        46.87140        -2.59917
H         59.69279        48.60245        -0.95997
