         640
 CSIRO Nanostructure Databank - Neutral Graphene Oxide Data Set
C         23.00079        27.50164        -0.24684
C         22.96867        28.80157         0.12461
C         22.97269        31.63772         0.97345
C         22.96337        33.02653         0.96927
C         22.96545        35.93423         0.96423
C         22.97578        37.31587         0.95516
C         22.94008        40.26823         0.61281
C         22.96517        41.61857         0.48772
C         22.93877        44.57359         0.33576
C         22.91579        45.85569        -0.07782
C         25.40133        24.59854        -0.31916
C         24.21779        25.32259        -0.35976
C         25.42066        27.35788         0.25740
C         24.19890        26.70404        -0.09072
C         25.42968        28.75981         0.55043
C         24.11954        29.41653         0.88901
C         25.39359        31.62491         0.71070
C         24.16629        30.92287         0.82010
C         25.38971        33.05316         0.69915
C         24.16100        33.75874         0.81833
C         25.39016        35.91109         0.61657
C         24.16359        35.20476         0.80968
C         25.39961        37.34606         0.64942
C         24.18322        38.03217         0.81513
C         25.46732        40.26105         0.87786
C         24.14913        39.50924         0.95906
C         25.42729        41.70466         0.59033
C         24.19351        42.38342         0.53284
C         25.40197        44.49909         0.31403
C         24.18733        43.80802         0.38961
C         25.35063        46.00591         0.33246
C         24.19686        46.51929        -0.52836
C         25.32209        48.71890        -0.40636
C         24.16858        48.02809        -0.48980
C         27.94220        23.12720        -0.51195
C         27.90330        24.52459        -0.17593
C         26.64492        25.22712        -0.02820
C         27.85554        27.31453         0.66427
C         26.62662        26.61505         0.27119
C         27.88641        28.78363         0.63145
C         26.64157        29.48417         0.61236
C         27.87942        31.63495         0.59217
C         26.64483        30.92004         0.65036
C         27.86783        33.05757         0.47249
C         26.61915        33.77519         0.52209
C         27.81183        35.89671        -0.10417
C         26.59696        35.18003         0.41993
C         27.83436        37.37214         0.20354
C         26.66844        38.06867         0.49155
C         27.89501        40.23520         0.38672
C         26.69258        39.50933         0.56987
C         27.89753        41.68045         0.41618
C         26.65724        42.39814         0.43948
C         27.88762        44.53599         0.23747
C         26.64702        43.81932         0.32916
C         27.88720        45.97210         0.08539
C         26.65330        46.68290        -0.01539
C         27.85308        48.76874        -0.44698
C         26.61991        48.04738        -0.29778
C         27.87790        50.14730        -0.78470
C         30.31474        23.30797        -1.13664
C         29.08731        22.52407        -0.93177
C         30.35649        24.64463        -0.51184
C         29.14603        25.21621        -0.08216
C         30.40270        27.36642         0.42039
C         29.17256        26.56919         0.49432
C         30.35058        28.74409         0.68072
C         29.11438        29.47168         0.69470
C         30.35627        31.62794         0.54382
C         29.12752        30.91996         0.63679
C         30.34277        33.05782         0.39191
C         29.10478        33.78112         0.36245
C         30.33610        35.91661         0.17686
C         29.11450        35.19126         0.20689
C         30.35956        37.34800         0.11864
C         29.09244        38.09914        -0.19752
C         30.35004        40.24166         0.25256
C         29.12405        39.54594         0.20662
C         30.36328        41.67720         0.33259
C         29.11731        42.39042         0.33449
C         30.35417        44.53971         0.18974
C         29.11008        43.82675         0.25667
C         30.35835        45.96294         0.09763
C         29.10770        46.67785         0.00757
C         30.30887        48.83414        -0.23962
C         29.09289        48.09731        -0.22016
C         30.30194        50.20614        -0.54303
C         29.06608        50.83864        -0.85126
C         32.80414        20.48606        -1.61360
C         31.65634        21.18406        -1.73833
C         32.93109        23.39424        -1.41641
C         31.60431        22.65195        -1.58162
C         32.84396        24.66398        -0.58311
C         31.61613        25.32670        -0.32623
C         32.86247        27.40435         0.30086
C         31.62260        26.68362         0.14690
C         32.86470        28.74196         0.68340
C         31.60450        29.47417         1.06242
C         32.82567        31.58241         0.43982
C         31.61501        30.92686         0.63861
C         32.79704        33.00378         0.03396
C         31.55756        33.77589         0.22857
C         32.83142        35.91074         0.22719
C         31.57676        35.18706         0.19203
C         32.81457        37.36066         0.32750
C         31.56988        38.06965         0.22546
C         32.81369        40.23311         0.33281
C         31.58844        39.51445         0.24012
C         32.82830        41.67060         0.40945
C         31.59208        42.38482         0.37355
C         32.80326        44.55282         0.31020
C         31.58730        43.83409         0.30913
C         32.79990        45.95294         0.13546
C         31.58818        46.66325         0.06528
C         32.82344        48.88635        -0.15441
C         31.56735        48.16489         0.26430
C         32.79517        50.22193        -0.44104
C         31.55230        50.96064        -0.57736
C         32.82527        53.05275        -0.83143
C         31.59879        52.32877        -0.78298
C         35.33770        18.94872        -1.53024
C         35.28524        20.34515        -1.25618
C         34.07215        21.12089        -1.28465
C         35.31866        23.14254        -0.65492
C         34.10355        22.50089        -1.04386
C         35.31695        24.56806        -0.34206
C         34.08358        25.30653        -0.27820
C         35.33919        27.36749         0.24386
C         34.10120        26.67905         0.10809
C         35.37715        28.77470         0.51418
C         34.13856        29.47070         1.00278
C         35.30926        31.62831         0.56909
C         34.10297        30.93336         0.59966
C         35.36862        33.05959         0.31768
C         34.11151        33.76805        -0.05126
C         35.31598        35.88547         0.46111
C         34.03970        35.21107         0.19671
C         35.29037        37.37775         0.55366
C         34.01437        38.09687         0.41775
C         35.29931        40.23444         0.53384
C         34.04556        39.51645         0.39715
C         35.28698        41.68331         0.59851
C         34.07300        42.37147         0.52675
C         35.34600        44.58273         0.46116
C         34.05634        43.86190         0.79675
C         35.35884        45.96030         0.31728
C         34.09646        46.66536         0.00432
C         35.33350        48.89392         0.37826
C         34.12499        48.14917        -0.14893
C         35.15968        50.40628         0.31976
C         34.11370        50.91728        -0.67551
C         35.30546        53.17007        -0.72000
C         34.04952        52.43335        -0.72856
C         35.43461        54.48331        -1.15819
C         37.78718        18.92254        -1.41717
C         36.53392        18.26216        -1.57893
C         37.75623        20.30402        -1.15712
C         36.52045        21.01348        -1.01605
C         37.77433        23.00182        -0.19210
C         36.51030        22.39027        -0.64498
C         37.78938        24.49745         0.06700
C         36.52956        25.25151        -0.09859
C         37.82462        27.38366         0.08695
C         36.54650        26.64743         0.08744
C         37.83931        28.81402         0.45345
C         36.57980        29.49152         0.53406
C         37.79615        31.61141         0.74500
C         36.58006        30.92510         0.67841
C         37.78572        33.09755         0.99201
C         36.55001        33.73969         0.40617
C         37.84591        35.90725         0.35036
C         36.58067        35.18040        -0.02654
C         37.84000        37.35769         0.20584
C         36.53671        38.12439         0.23121
C         37.79747        40.23302         0.92477
C         36.51876        39.55775         0.51361
C         37.78420        41.70087         0.59989
C         36.55808        42.40509         0.58407
C         37.79810        44.51550         0.24206
C         36.56935        43.82781         0.46039
C         37.83086        45.96144         0.22286
C         36.59581        46.73285         0.32890
C         37.99230        48.73988         0.82955
C         36.61784        48.12977         0.45757
C         38.15326        50.22819         0.67386
C         36.25466        51.34651         0.55471
C         37.79625        53.21753         0.10204
C         36.44053        52.54309        -0.06796
C         37.81151        54.60125        -0.51835
C         36.67001        55.17523        -1.04896
C         40.29558        16.05725        -1.47566
C         39.09958        16.75230        -1.48283
C         40.26770        18.86223        -1.19443
C         39.06279        18.18983        -1.38559
C         40.33973        20.31628        -1.25752
C         39.01022        21.07492        -1.18174
C         40.26234        23.05775        -0.35543
C         39.05443        22.39982        -0.56733
C         40.27272        24.45517         0.02883
C         39.09534        25.16398         0.06324
C         40.36428        27.31617         0.45162
C         39.11437        26.63643         0.06559
C         40.29925        28.72835         0.96627
C         39.03540        29.48579         0.64158
C         40.28199        31.62415         0.72622
C         39.04585        30.91636         0.74465
C         40.28116        33.06504         0.60972
C         39.08022        33.78568         0.62569
C         40.30479        35.93580         0.34962
C         39.06768        35.21663         0.46804
C         40.30932        37.37407         0.31098
C         39.08528        38.10875         0.40373
C         40.28672        40.22577         0.49436
C         39.06955        39.50517         0.53316
C         40.28044        41.66229         0.42468
C         39.01118        42.37447         0.40578
C         40.24545        44.39909        -0.28360
C         38.99890        43.76546         0.15700
C         40.25229        45.91372        -0.40680
C         39.05256        46.62311         0.04019
C         40.28356        48.72403        -0.20974
C         39.13709        48.03906         0.15344
C         40.23022        50.16337        -0.65865
C         39.03755        50.90484        -0.09562
C         40.28002        53.08986        -0.45906
C         38.93925        52.36783        -0.53288
C         40.29991        54.51500        -0.43832
C         39.07977        55.28541        -0.45879
C         40.35195        57.35640        -0.31339
C         39.14147        56.69764        -0.42966
C         42.76754        16.03805        -1.28143
C         41.53049        16.70477        -1.23401
C         42.80711        18.87623        -0.96192
C         41.50548        18.12901        -0.75364
C         42.82742        20.29387        -0.92108
C         41.57615        21.03352        -0.89820
C         42.75897        23.19759        -0.67458
C         41.52247        22.39129        -0.62787
C         42.81481        24.53802        -0.10068
C         41.55809        25.11370         0.48525
C         42.80681        27.33149         0.55650
C         41.54345        26.62799         0.44339
C         42.78807        28.77270         0.63478
C         41.56737        29.48743         0.70913
C         42.76597        31.61034         0.56257
C         41.53130        30.89943         0.68177
C         42.73636        33.03438         0.40697
C         41.54020        33.75937         0.42329
C         42.75159        35.91230         0.16298
C         41.55086        35.21186         0.29733
C         42.77343        37.37892        -0.16387
C         41.51856        38.09633         0.23374
C         42.76796        40.20147         0.32290
C         41.52779        39.50880         0.33234
C         42.78470        41.66630         0.64997
C         41.49754        42.36021         0.30046
C         42.74496        44.44754        -0.16700
C         41.53167        43.73339        -0.04013
C         42.75145        45.87731        -0.34569
C         41.54341        46.60442        -0.35617
C         42.75755        48.72668        -0.34981
C         41.53887        48.02049        -0.33928
C         42.76532        50.19744        -0.02076
C         41.49826        50.93856        -0.37630
C         42.78783        53.02669        -0.51461
C         41.50335        52.33272        -0.45502
C         42.81464        54.50386        -0.79800
C         41.53941        55.22200        -0.43941
C         42.83494        57.30659        -0.19810
C         41.56705        56.62309        -0.33040
C         43.96756        16.72013        -1.11452
C         45.27987        18.85032        -0.89461
C         44.02058        18.14557        -0.98533
C         45.29013        20.27268        -0.77186
C         44.06206        20.98165        -0.83955
C         45.31933        23.15009        -0.44599
C         44.09238        22.45004        -0.84595
C         45.28240        24.53147        -0.15572
C         44.01693        25.22098         0.03644
C         45.26802        27.33213         0.54202
C         44.01767        26.63200         0.41213
C         45.26781        28.76855         0.66048
C         44.02491        29.48726         0.60813
C         45.25847        31.63702         0.57571
C         44.00435        30.90671         0.55835
C         45.26422        33.01674         0.50231
C         44.01834        33.71176         0.15582
C         45.29538        35.94466         0.24319
C         44.02818        35.21191         0.01321
C         45.27864        37.36656         0.28296
C         44.03953        38.09225         0.22206
C         45.23931        40.24668         0.37669
C         44.01040        39.49911         0.31818
C         45.25113        41.64132         0.18284
C         44.02293        42.37164         0.16849
C         45.24148        44.46426        -0.27388
C         44.00532        43.74647        -0.08564
C         45.23102        45.88437        -0.41410
C         43.98742        46.59358        -0.41268
C         45.22680        48.73642        -0.60493
C         43.98257        48.01909        -0.43477
C         45.18450        50.18450        -0.70431
C         44.01936        50.88690        -0.49306
C         45.26003        53.04571        -0.55504
C         43.98136        52.33564        -0.57827
C         45.26367        54.48007        -0.27684
C         44.07573        55.19463        -0.31558
C         44.01451        56.62172        -0.13753
C         47.71826        18.86273        -0.78795
C         46.52839        18.17477        -0.90185
C         47.75600        20.27640        -0.63902
C         46.53121        20.98934        -0.62401
C         47.76346        23.11008        -0.20346
C         46.53616        22.41506        -0.41713
C         47.75097        24.51178         0.04838
C         46.50855        25.21986         0.11491
C         47.74588        27.26318         0.79814
C         46.48044        26.60169         0.46884
C         47.75538        28.79398         0.90692
C         46.48506        29.50204         0.71284
C         47.75338        31.62402         0.58151
C         46.51103        30.91108         0.64916
C         47.77372        33.04983         0.59645
C         46.49230        33.79386         0.88613
C         47.71419        35.94452         0.51505
C         46.49780        35.24599         0.46162
C         47.72365        37.35816         0.43444
C         46.50295        38.06076         0.42617
C         47.75016        40.22019         0.20635
C         46.51178        39.53330         0.71553
C         47.70553        41.60166        -0.07537
C         46.49515        42.33771        -0.05501
C         47.69209        44.50233        -0.42564
C         46.47946        43.76192        -0.27087
C         47.69574        45.89909        -0.54502
C         46.45180        46.60982        -0.55551
C         47.68181        48.70289        -1.22822
C         46.42691        48.02815        -0.72139
C         47.71208        50.19987        -1.03399
C         46.40056        50.93489        -1.22324
C         47.75890        52.92875        -0.27012
C         46.43081        52.34650        -0.68311
C         47.71339        54.42082        -0.10859
C         46.55492        55.11112        -0.06235
C         50.25755        20.32009        -0.57781
C         49.00896        20.99040        -0.49645
C         50.24581        23.09188        -0.10477
C         49.00730        22.39211        -0.26732
C         50.24163        24.50217         0.12967
C         49.00153        25.20953         0.22112
C         50.23705        27.32030         0.57362
C         49.01702        26.59059         0.50700
C         50.22824        28.77165         0.60569
C         49.02125        29.49462         0.65086
C         50.22275        31.63079         0.38377
C         49.00192        30.91488         0.51339
C         50.21613        33.06568         0.39560
C         48.97639        33.75374         0.55329
C         50.22737        35.95252         0.42753
C         48.98706        35.22892         0.89699
C         50.19340        37.33839         0.22522
C         48.98269        38.07498         0.32542
C         50.21589        40.21031         0.03038
C         48.96016        39.49049         0.14844
C         50.22919        41.61456        -0.08734
C         48.96487        42.28535        -0.41897
C         50.23750        44.50353        -0.29661
C         48.97324        43.78340        -0.54882
C         50.20144        45.93446        -0.40028
C         48.96211        46.62266        -0.60964
C         50.17925        48.74407        -0.81757
C         48.96202        48.01295        -0.81995
C         50.17342        50.17859        -0.97686
C         48.89619        50.88002        -1.07275
C         50.19492        53.04827        -1.03313
C         48.85629        52.39603        -1.22095
C         51.45132        20.99408        -0.42719
C         52.72105        23.10395         0.03150
C         51.48336        22.39063        -0.17711
C         52.70293        24.47582         0.29721
C         51.46851        25.19860         0.32386
C         52.71763        27.34422         0.52399
C         51.46551        26.61884         0.49422
C         52.69947        28.77936         0.49516
C         51.46409        29.48707         0.49447
C         52.69775        31.61321         0.30370
C         51.46724        30.91123         0.38124
C         52.69840        33.06836        -0.07681
C         51.43188        33.80141         0.29222
C         52.70263        35.92840         0.15212
C         51.43782        35.21151         0.27383
C         52.71208        37.32357         0.02709
C         51.42436        38.03717        -0.30936
C         52.64213        40.23605         0.07220
C         51.44171        39.51466         0.00140
C         52.63632        41.64263         0.23998
C         51.42917        42.35059         0.04293
C         52.67025        44.53289         0.10586
C         51.42320        43.80910        -0.04319
C         52.66295        45.96079        -0.13468
C         51.42527        46.65292        -0.37929
C         52.64943        48.78960        -0.64920
C         51.41725        48.06327        -0.60366
C         52.63900        50.20130        -0.85847
C         51.37554        50.89457        -0.96157
C         51.34368        52.34809        -0.97987
C         55.18478        23.10399         0.00404
C         54.00092        22.42764        -0.06039
C         55.24221        24.51784         0.26294
C         53.96762        25.16973         0.75317
C         55.16933        27.37229         0.52358
C         53.94054        26.65926         0.53816
C         55.15888        28.79767         0.54144
C         53.92287        29.50196         0.50751
C         55.16938        31.65185         0.56372
C         53.92028        30.93282         0.43368
C         55.15646        33.11473         0.55116
C         53.95721        33.80126         0.32121
C         55.17818        35.93886         0.27616
C         53.94574        35.22131         0.26326
C         55.17095        37.35586         0.09525
C         53.93678        38.03235        -0.02829
C         55.20443        40.26201        -0.09126
C         53.90471        39.49828        -0.18970
C         55.14059        41.61298         0.50498
C         53.84008        42.36426         0.80972
C         55.05790        44.65629         0.57756
C         53.86051        43.87250         0.47565
C         55.09994        46.02193         0.13295
C         53.87004        46.69185        -0.15535
C         55.10390        48.82708        -0.47860
C         53.88710        48.10599        -0.44815
C         55.07450        50.20598        -0.73023
C         53.87479        50.88059        -0.92361
C         57.70288        24.63419        -0.11443
C         56.42834        25.24014         0.24652
C         57.62536        27.40431         0.54195
C         56.42116        26.67857         0.48694
C         57.61892        28.81958         0.60891
C         56.38369        29.52096         0.62241
C         57.61172        31.60724         1.25069
C         56.35784        30.95139         0.71964
C         57.60868        33.13825         1.12552
C         56.37287        33.84437         0.71509
C         57.66810        35.96122         0.39309
C         56.40685        35.23563         0.48928
C         57.65602        37.35731         0.12624
C         56.43045        38.07531         0.06811
C         57.67559        40.18571         0.37421
C         56.44854        39.49045         0.09473
C         57.61992        41.54891         0.77997
C         56.30055        42.03333         1.08713
C         57.54731        44.63372         0.70735
C         56.28124        44.16197         1.09298
C         57.55674        45.97429         0.19233
C         56.34201        46.68898         0.05452
C         57.62637        48.61141        -0.87020
C         56.41299        48.18965        -0.06833
C         58.86912        25.29952         0.00637
C         60.09001        27.48055         0.11869
C         58.94003        26.66416         0.64137
C         60.05196        28.82606         0.10339
C         58.86498        29.56943         0.51154
C         60.09527        31.71069         0.66472
C         58.87495        30.94023         0.71956
C         60.14213        33.05702         0.81205
C         58.92040        33.87521         0.98050
C         60.13327        36.00307         0.37969
C         58.90249        35.28023         0.52487
C         60.16897        37.32987         0.08882
C         58.92677        38.10060        -0.23904
C         60.07428        40.28096         0.53283
C         58.92507        39.53085         0.26845
C         60.01157        41.65757         0.78868
C         58.78937        42.36222         0.87340
C         59.94980        44.53047         0.48944
C         58.76474        43.84772         0.79303
C         59.97456        45.86387         0.03388
C         58.80117        46.58530        -0.16535
C         58.76452        47.88608        -0.81833
O         37.21717        50.91502         1.46789
O         40.10016        45.05672        -1.58869
O         37.12849        37.79126        -1.08680
O         37.70433        23.52111         1.17914
O         34.27687        47.32748        -1.33831
O         33.45158        33.27767        -1.25669
O         56.23434        43.09943         2.00237
O         43.42139        23.08042        -1.98396
O         49.00195        42.91921        -1.75182
O         28.53236        26.68725         1.81482
O         30.75890        23.30694        -2.58756
O         34.79997        49.67598         1.53120
O         38.56013        27.17936        -1.20537
O         24.83657        39.94105         2.18185
O         47.75679        27.94519         2.10381
O         54.56245        40.02701        -1.40116
O         58.25028        33.74297         2.30602
O         39.72104        20.91925        -2.45200
O         44.08593        34.34718        -1.19182
O         35.41365        36.54342         1.76707
O         51.30801        37.94838        -1.77566
H         52.03419        38.48447        -2.16148
O         33.28649        23.88749        -2.75049
H         32.43226        24.07639        -3.20658
O         42.78015        37.41586        -1.65539
H         42.07733        36.80622        -1.96831
O         25.04363        46.39932         1.70446
H         25.75826        46.05861         2.28184
O         31.52736        48.31031         1.73621
H         31.63198        49.26362         1.94354
O         47.59104        48.53593        -2.70617
H         48.47708        48.73868        -3.07639
O         56.65897        48.70807         1.29207
H         57.47735        48.27777         1.62030
O         58.90589        38.23009        -1.71605
H         58.82950        37.32460        -2.08499
O         38.11990        53.37266         1.49969
H         37.38340        53.84733         1.93592
O         48.08238        52.37582         1.04532
H         47.43363        52.73253         1.68775
O         36.52429        35.17728        -1.48284
H         36.69266        36.10810        -1.77605
O         46.44337        33.88640         2.37533
H         46.46109        32.96845         2.72450
O         49.01498        35.26147         2.36807
H         48.15285        34.88144         2.67031
O         40.14736        50.07017        -2.11582
H         39.65364        50.86861        -2.43004
O         23.86662        29.09961         2.31180
H         23.88438        28.12213         2.39590
O         27.68631        35.79868        -1.57740
H         28.32366        36.46157        -1.95049
O         53.98196        24.99329         2.22411
H         53.95937        24.02763         2.39613
O         52.71655        33.06476        -1.55950
H         52.64398        33.99871        -1.85288
O         37.66825        33.27102         2.45354
H         36.91752        32.71722         2.75811
O         37.80084        40.14719         2.40679
H         37.03703        40.67046         2.73290
O         46.60486        39.62303         2.20048
H         46.40418        40.55097         2.44957
O         41.38064        18.03289         0.73296
H         42.11198        17.45424         1.03966
O         53.63839        42.28760         2.25804
H         54.43134        42.70208         2.67293
O         57.58482        31.30075         2.67766
H         58.04706        32.04883         3.12595
O         42.81593        50.25124         1.46275
H         43.62645        49.77388         1.74214
O         34.26536        29.47109         2.47613
H         33.35177        29.62985         2.83139
O         34.64557        50.48957        -1.96613
H         33.99220        50.72280        -2.65818
O         38.62706        52.29352        -1.96705
H         38.65584        53.20646        -2.32724
O         48.41888        52.73508        -2.55989
H         49.04190        52.33374        -3.19940
O         38.15408        48.45551         2.25670
H         37.55018        49.07038         2.72946
O         41.63363        24.79372         1.92661
H         40.77527        25.04183         2.33266
O         31.56841        29.51522         2.56269
H         31.22820        28.64542         2.86711
O         24.45483        46.11333        -1.90088
H         23.72492        46.45116        -2.45959
O         46.19873        51.02020        -2.67095
H         46.38037        50.11805        -3.02768
O         42.87221        41.72897         2.13835
H         42.06985        41.28562         2.49063
O         59.20441        26.44227         2.06955
H         58.40522        26.02125         2.45129
O         40.22809        28.56853         2.44336
H         41.11429        28.27696         2.74886
O         42.86933        54.60818        -2.27596
H         43.01778        55.55363        -2.49200
O         29.05666        38.13770        -1.70916
H         28.36686        38.79066        -1.95916
O         33.97423        43.96460         2.27115
H         33.13745        43.53386         2.54867
H         22.12117        27.03236        -0.71316
H         22.05003        29.38815        -0.01996
H         22.02633        31.09855         1.11508
H         22.00279        33.54305         1.09006
H         22.00872        35.41720         1.10875
H         22.03263        37.85790         1.10424
H         22.00271        39.72703         0.42126
H         22.02911        42.14212         0.24972
H         22.00065        44.08041         0.62833
H         21.96505        46.40736        -0.14551
H         25.36917        23.52674        -0.55429
H         23.27861        24.81477        -0.62306
H         25.29491        49.81783        -0.42597
H         23.20725        48.55387        -0.60139
H         27.02719        22.52510        -0.42737
H         26.94243        50.67760        -1.00577
H         29.07489        21.46049        -1.20408
H         29.04709        51.90064        -1.12923
H         32.77977        19.39949        -1.77038
H         30.72955        20.66225        -2.01379
H         32.77228        54.14746        -0.92319
H         30.67020        52.90596        -0.88211
H         34.40986        18.38836        -1.70769
H         34.58311        54.99973        -1.62188
H         36.50662        17.18362        -1.78494
H         36.72293        56.19498        -1.45910
H         40.29586        14.97572        -1.67966
H         38.16844        16.19463        -1.64869
H         40.38371        58.45205        -0.23003
H         38.20760        57.27700        -0.43426
H         42.78567        14.95606        -1.48147
H         42.82568        58.39944        -0.07693
H         44.90117        16.14398        -1.15280
H         44.94080        57.18183         0.05216
H         48.65318        18.28741        -0.79883
H         46.56395        17.08184        -1.00133
H         48.66078        54.94757         0.08009
H         46.59241        56.19511         0.11763
H         50.29080        19.23956        -0.76868
H         50.23341        54.14747        -1.05035
H         52.38605        20.42303        -0.49917
H         52.29123        52.89837        -0.90229
H         56.11732        22.54615        -0.15993
H         54.02577        21.34765        -0.25507
H         56.01329        50.77699        -0.74065
H         53.90928        51.96197        -1.10803
H         57.70835        23.61069        -0.51575
H         57.62027        49.58547        -1.38167
H         59.81508        24.80797        -0.26788
H         61.00225        26.94845        -0.19155
H         60.93512        29.38248        -0.24200
H         61.04277        31.17738         0.50173
H         61.11717        33.56123         0.76350
H         61.08188        35.47748         0.55778
H         61.14074        37.83312        -0.01361
H         61.06616        39.81060         0.47982
H         60.96605        42.18668         0.90958
H         60.91340        44.00594         0.52713
H         60.94146        46.31379        -0.23455
H         59.68218        48.24695        -1.30765
