         344
 CSIRO Nanostructure Databank - Neutral Graphene Oxide Data Set
C          1.35262         3.32128        -0.49116
C          0.17077         3.97592        -0.78568
C          1.24437         6.15786        -0.51783
C          0.11159         5.38055        -0.79529
C          1.19614         7.61935        -0.48939
C          0.01017         8.31950        -0.72965
C          1.07937        10.46627        -0.29566
C         -0.04999         9.71546        -0.60231
C          0.91446        11.90259         0.15416
C         -0.11173        12.80059        -0.51049
C          1.03324        14.83087         0.30420
C         -0.08048        14.15269        -0.34650
C          1.17536        16.25143         0.36069
C          0.01016        17.04708         0.36007
C          1.15882        19.21552         0.30602
C         -0.00631        18.44564         0.45310
C          1.18618        20.64223         0.21476
C          0.02079        21.40723         0.59750
C          1.11245        23.57191         0.12472
C         -0.00181        22.76507         0.63742
C          1.23515        25.00670         0.48433
C          0.07735        25.74991         0.76474
C          1.32580        27.82829         0.92452
C          0.11535        27.15148         0.90911
C          1.39717        29.25621         0.99291
C          3.74805         3.41169         0.09770
C          2.52975         4.06640        -0.20595
C          3.66350         6.24637         0.04827
C          2.47637         5.49636        -0.22945
C          3.62280         7.69738         0.02587
C          2.38806         8.36598        -0.20482
C          3.56444        10.52698        -0.00981
C          2.33769         9.79937        -0.14071
C          3.50788        12.00451        -0.08362
C          2.21920        12.63969         0.27323
C          4.02225        15.04649         0.38827
C          2.11022        13.95626         0.66006
C          3.78451        16.38429         0.02618
C          2.51218        17.02919         0.55826
C          3.64149        19.20223        -0.31523
C          2.38588        18.44248        -0.00249
C          3.64083        20.67300        -0.19213
C          2.39805        21.33951        -0.06885
C          3.68670        23.53101        -0.14724
C          2.40211        22.80722        -0.19351
C          3.70121        24.94688         0.10507
C          2.50841        25.63413         0.45110
C          3.81842        27.78648         0.59165
C          2.59911        27.02774         1.02450
C          3.83063        29.20671         0.66128
C          2.59031        29.91999         0.89745
C          6.16105         3.48139         0.63012
C          4.91248         4.14387         0.36403
C          6.07681         6.34578         0.76808
C          4.86071         5.57354         0.32990
C          6.07723         7.77411         0.30315
C          4.83434         8.44204         0.13199
C          6.06469        10.60221        -0.10113
C          4.80703         9.87407         0.00353
C          6.08065        12.00885        -0.27645
C          4.80251        12.75342        -0.28901
C          6.01366        14.83544        -1.06923
C          4.95089        14.22525        -0.20112
C          6.05758        16.33998        -0.91729
C          4.91146        17.05892        -0.55475
C          6.10965        19.20517        -0.49128
C          4.94031        18.50646        -0.43800
C          6.14872        20.62556         0.01200
C          4.86151        21.38179        -0.25272
C          6.15079        23.52505        -0.64401
C          4.88164        22.79854        -0.26287
C          6.18704        24.96068        -0.16772
C          4.97149        25.64240         0.11260
C          6.23080        27.77807         0.16906
C          5.00288        27.06946         0.30348
C          6.24814        29.21126         0.26011
C          5.02869        29.90495         0.46956
C          8.63038         3.49998         0.81799
C          7.37241         4.17712         0.65540
C          8.54884         6.31795         0.28434
C          7.36651         5.61229         0.51359
C          8.52459         7.72282         0.11250
C          7.29946         8.45607         0.13001
C          8.52512        10.60315        -0.20930
C          7.29403         9.88741        -0.09092
C          8.52536        12.02508        -0.34738
C          7.29369        12.73738        -0.43129
C          8.53283        14.83797        -0.84288
C          7.33125        14.14991        -0.74585
C          8.61837        16.26546        -1.36273
C          7.30359        17.04895        -1.24674
C          8.63095        19.19502        -0.63370
C          7.34187        18.53979        -0.94254
C          8.63159        20.61187        -0.41223
C          7.42159        21.35514        -0.33688
C          8.66419        23.46003        -0.48015
C          7.43342        22.75446        -0.41186
C          8.65726        24.95335        -0.71620
C          7.40628        25.64589        -0.21426
C          8.68282        27.76590        -0.04583
C          7.44502        27.06345        -0.03850
C          8.69838        29.19638         0.06850
C          7.47581        29.89973         0.16279
C         11.08729         3.54745         0.93758
C          9.83892         4.16719         0.67686
C         11.08615         6.32263         0.29751
C          9.82956         5.53828         0.02655
C         10.99857         7.81518         0.44499
C          9.80046         8.40402        -0.30042
C         10.97735        10.60440        -0.19910
C          9.76750         9.90850        -0.17090
C         10.98500        12.02030        -0.36605
C          9.75772        12.73503        -0.44609
C         11.01495        14.85344        -0.61877
C          9.77047        14.14565        -0.65030
C         11.03236        16.29957        -0.64900
C          9.83582        17.02470        -0.81184
C         11.09153        19.14917        -0.22991
C          9.81178        18.44177        -0.63109
C         11.08368        20.61853        -0.56516
C          9.89167        21.32374        -0.47028
C         11.14859        23.47233        -0.39850
C          9.87838        22.76846        -0.47422
C         11.13479        24.91955        -0.17336
C          9.92942        25.63054        -0.25159
C         11.12857        27.72149         0.25873
C          9.92114        27.03726        -0.04766
C         11.15109        29.17808         0.32077
C          9.93725        29.88084         0.13263
C         13.55177         3.61527         1.04994
C         12.30253         4.23790         0.80543
C         13.53510         6.39520         0.49352
C         12.28705         5.66985         0.51151
C         13.53015         7.74600        -0.17102
C         12.27459         8.53491         0.08113
C         13.48521        10.62483        -0.35712
C         12.24855         9.88808        -0.13714
C         13.46049        11.99620        -0.52730
C         12.21811        12.72089        -0.46916
C         13.48766        14.80249        -0.02712
C         12.21934        14.13103        -0.48407
C         13.46053        16.29840        -0.19521
C         12.31070        16.97903        -0.47053
C         13.57461        19.20469        -0.39864
C         12.32368        18.45554        -0.80180
C         13.60241        20.55972        -0.54305
C         12.35631        21.32960        -0.95826
C         13.61286        23.51302        -0.47854
C         12.33334        22.77639        -0.49028
C         13.62235        24.91850         0.00393
C         12.35085        25.60447         0.14303
C         13.53180        27.67587         0.93992
C         12.31924        26.98918         0.44138
C         13.55982        29.19497         1.13749
C         12.33502        29.86404         0.59671
C         16.00644         3.67344         1.19569
C         14.75306         4.33642         1.04309
C         15.99217         6.49908         0.76937
C         14.74073         5.76407         0.77407
C         16.02092         7.90526         0.39209
C         14.78315         8.56002         0.01276
C         15.98271        10.66896        -0.45901
C         14.74826         9.91653        -0.26567
C         15.96646        11.97902        -0.82495
C         14.67811        12.73174        -1.02810
C         15.96414        14.83723        -0.55478
C         14.76895        14.17002        -0.55008
C         15.97585        16.35899        -0.52775
C         14.75064        16.98018         0.16923
C         15.94905        19.11214         0.27544
C         14.78698        18.47303        -0.02982
C         15.91357        20.61251         0.47483
C         14.97069        21.22623        -0.58764
C         16.17474        23.45383        -0.11282
C         14.91151        22.74518        -0.51325
C         16.12855        24.93542         0.07752
C         14.81217        25.59268         0.18064
C         16.07858        27.73934         0.54808
C         14.83457        26.95431         0.75153
C         15.98653        29.16203         0.31402
C         14.77057        29.83890         0.51290
C         18.48220         3.70193         1.22750
C         17.20401         4.37650         1.14769
C         18.44515         6.54220         1.15505
C         17.18295         5.81062         1.00358
C         18.46005         8.05911         0.82841
C         17.21173         8.61740         0.31640
C         18.49734        10.72908        -0.35552
C         17.26324         9.86558        -0.52839
C         18.48430        11.97898        -0.86809
C         17.21831        12.70377        -1.27652
C         18.43083        14.78688        -0.45067
C         17.24143        14.15238        -0.75065
C         18.44474        16.13247         0.26189
C         17.22551        16.96457         0.03650
C         18.46983        19.10147         0.26685
C         17.20352        18.34780         0.63691
C         18.46015        20.54528         0.25744
C         17.26939        21.26041         0.42613
C         18.57362        23.46410         0.44243
C         17.27226        22.73937         0.69358
C         18.58210        24.87499         0.46838
C         17.29440        25.60601         0.79838
C         18.49732        27.76435         0.14977
C         17.28997        27.07431         0.45995
C         18.42657        29.17831        -0.08374
C         17.18386        29.84610        -0.02513
C         19.66681         4.37400         1.12860
C         20.88620         6.51685         0.83924
C         19.71696         5.81266         1.03988
C         20.89924         7.93013         0.60239
C         19.75730         8.68050         0.49948
C         20.99669        10.75996        -0.33277
C         19.75678        10.18970         0.31314
C         20.99745        11.94943        -0.94390
C         19.74577        12.74613        -1.23414
C         20.88125        14.83034        -0.40585
C         19.71477        14.13175        -0.60951
C         20.87931        16.24018        -0.17472
C         19.71578        16.93643         0.02789
C         20.86983        19.13971        -0.10518
C         19.67191        18.39595         0.07264
C         20.88486        20.52606        -0.06423
C         19.70784        21.26954         0.11251
C         20.92427        23.46392        -0.11658
C         19.74191        22.72779         0.14112
C         20.92930        24.85019        -0.11106
C         19.76057        25.59680         0.16483
C         20.89562        27.80666        -0.21484
C         19.73955        27.06398         0.05289
C         20.83731        29.20098        -0.41370
C         19.63486        29.88003        -0.36844
O          1.49378        23.29357        -1.25747
O         14.36474        23.30148        -1.75379
O          3.18460        14.50899         1.37290
O          2.75789        18.65768        -1.39118
O         19.70298        12.96146        -2.64377
O          7.20541        18.04139        -2.32985
O          3.94479        12.42602        -1.48189
O         14.18001        27.00277         2.07983
O         16.60316        24.35160        -1.17691
O         18.39314         7.55633         2.20318
O         15.29555        20.82994         1.77189
H         15.88031        21.43033         2.29805
O         13.59942        29.47286         2.57536
H         13.96699        28.66398         3.00387
O         12.37450        21.41934        -2.42330
H         13.03700        22.11474        -2.65038
O          5.96687         6.42482         2.25120
H          5.98640         5.50155         2.58445
O         13.51807        14.49818         1.41541
H         14.26884        15.01568         1.79637
O         17.22569        18.19489         2.11012
H         16.37268        17.74563         2.33654
O         15.86414        16.78061        -1.92755
H         16.56444        16.31980        -2.43747
O         17.34898         9.37497        -1.91241
H         17.38359        10.16425        -2.49748
O         17.16109        12.76748        -2.72798
H         18.12539        12.91590        -3.01502
O         11.20674        19.04648         1.22766
H         10.43896        19.51101         1.62365
O          8.90255        16.12231        -2.77976
H          8.53345        16.92175        -3.22296
O          5.69438        14.55656        -2.46922
H          5.10578        13.76830        -2.49602
O          2.69126        17.19072         1.99572
H          2.80190        16.28466         2.36581
O         17.04677        25.51883         2.23845
H         17.71088        26.07519         2.69703
O         16.93408        22.85792         2.11576
H         16.97524        23.81564         2.38283
O         10.74686         8.06898         1.86426
H         11.51936         7.74642         2.37445
O          8.60833        25.11245        -2.17526
H          7.80782        24.61780        -2.48020
O         10.01036         8.12454        -1.71224
H          9.21603         8.41369        -2.20704
O         18.42684        15.79566         1.70293
H         18.27089        16.64921         2.18298
O          6.21191        20.51788         1.48761
H          5.39557        20.06547         1.79072
O         13.48187         7.42283        -1.61341
H         13.41372         8.26957        -2.10469
O         12.21149        18.54072        -2.24172
H         13.05251        18.23053        -2.63740
O         14.46392        12.84685        -2.47624
H         15.35977        12.93254        -2.89260
O         14.92864        16.76197         1.61811
H         14.16843        17.19573         2.06457
O         15.56157        20.90683        -1.86771
H         15.13834        21.48407        -2.54072
O          0.41456        11.74009         1.54296
H          0.30459        12.63812         1.92322
O          2.79223        26.81369         2.49223
H          2.82502        27.70423         2.90392
O          6.09320        23.63889        -2.12316
H          5.21505        24.00982        -2.35889
O          9.84339         5.25331        -1.41572
H          9.16497         4.56472        -1.58241
O         19.71771        10.70810         1.68488
H         19.74691        11.68700         1.63366
H          1.39507         2.22288        -0.47675
H         -0.73724         3.39850        -1.00904
H         -0.84985         5.85923        -1.02410
H         -0.91577         7.78027        -0.96955
H         -1.02192        10.21603        -0.71672
H         -0.96493        12.34367        -1.03439
H         -0.87732        14.76347        -0.79659
H         -0.96292        16.53369         0.37432
H         -0.98270        18.93706         0.56666
H         -0.85430        20.86155         0.97710
H         -0.86114        23.27299         1.09788
H         -0.90199        25.25270         0.75288
H         -0.82859        27.71430         0.95678
H          0.45869        29.82211         1.09438
H          3.78048         2.31231         0.11332
H          2.62072        31.01798         0.94243
H          6.16700         2.38412         0.70808
H          5.03426        31.00376         0.51946
H          8.62080         2.43035         1.07747
H          7.48844        30.99699         0.23848
H         11.09598         2.51606         1.32218
H          9.94171        30.98002         0.17752
H         13.58027         2.52924         1.22511
H         12.31978        30.96465         0.60541
H         16.01858         2.58166         1.33185
H         14.74601        30.92921         0.36659
H         18.48004         2.60587         1.32026
H         17.14956        30.93095        -0.20383
H         20.61703         3.81920         1.12955
H         21.84186         5.97349         0.79812
H         21.88154         8.39513         0.43910
H         21.94817        10.22072        -0.20798
H         21.93169        12.33003        -1.38435
H         21.85009        14.33152        -0.54544
H         21.84774        16.75608        -0.23754
H         21.82514        18.61853        -0.24456
H         21.85045        21.03696        -0.17511
H         21.86045        22.94272        -0.35644
H         21.86737        25.36847        -0.35107
H         21.87358        27.31160        -0.28130
H         21.76723        29.74804        -0.62314
H         19.59905        30.96451        -0.54443
