         320
 CSIRO Nanostructure Databank - Neutral Graphene Oxide Data Set
C         30.90492        31.70471        -0.06638
C         31.10837        32.61576         0.75406
C         30.35541        36.09430         1.16029
C         30.34124        37.31225         0.96170
C         30.33417        40.35989         0.74174
C         30.29331        41.58600         0.94070
C         32.84836        28.86902        -1.12059
C         31.82654        29.55419        -1.05748
C         32.98127        31.71407        -1.19538
C         31.51341        30.98770        -1.25525
C         32.98962        33.04323        -1.55848
C         31.42025        33.84151         1.33452
C         32.73164        35.86376         0.47199
C         31.32570        35.11266         0.53884
C         32.74541        37.30542         1.01142
C         31.49493        38.06471         0.37002
C         32.62388        40.27503         0.07800
C         31.51029        39.56027         0.45361
C         32.64531        41.77478         0.05900
C         31.05177        42.70150         0.39280
C         32.76585        44.35512         1.12263
C         31.66164        43.79698         1.16372
C         35.53809        27.45562        -0.33881
C         35.44511        28.70832        -1.11385
C         34.19831        29.49863        -1.44637
C         35.47075        31.54711        -0.70158
C         34.13103        30.84529        -0.62036
C         35.52149        32.76507        -0.09793
C         33.81936        34.32082        -1.29358
C         35.21548        35.83910         0.31869
C         33.85002        35.26765        -0.05060
C         35.33053        37.34606         0.73009
C         34.00916        38.12956         0.69657
C         35.19436        40.25274        -0.26245
C         33.94904        39.57247         0.25256
C         35.23293        41.74897        -0.24015
C         33.95984        42.49255         0.15634
C         35.29386        44.56862         0.55089
C         34.13328        43.72402         1.08303
C         35.67156        45.80372         1.35330
C         38.00149        27.23821        -0.36753
C         36.57520        26.88315         0.00827
C         37.95822        28.81484        -0.30203
C         36.76725        29.42974        -1.06700
C         37.99580        31.61400        -0.61435
C         36.76459        30.95545        -1.26414
C         37.94042        32.98605        -0.28813
C         36.61942        33.70973        -0.51455
C         37.82766        35.89155        -0.05431
C         36.52397        35.09827         0.11988
C         37.79136        37.34599         0.39110
C         36.49863        38.03052         0.01984
C         37.75597        40.26808        -0.23414
C         36.48696        39.49220        -0.29209
C         37.80557        41.63384        -0.20106
C         36.56694        42.51507        -0.35315
C         37.94565        44.52266         0.30631
C         36.67872        43.71673         0.60571
C         38.02972        45.91169         0.69016
C         36.74993        46.38597         1.15463
C         40.05543        25.34559         2.18451
C         39.08150        25.71923         1.48442
C         40.36082        27.38016         0.33327
C         39.14182        26.77265         0.47840
C         40.58080        28.65496        -0.46369
C         39.26009        29.44114        -0.86787
C         40.38408        31.59690        -0.07051
C         39.21751        30.91377        -0.46506
C         40.34164        33.00782         0.14802
C         39.10300        33.68543         0.08308
C         40.37079        35.89431         0.51402
C         39.05647        35.12563         0.41517
C         40.44740        37.42516         0.56905
C         39.06537        38.11677         0.38108
C         40.26984        40.23100         0.01746
C         39.02277        39.44609        -0.38948
C         40.26402        41.68703        -0.40481
C         39.08225        42.37309        -0.28328
C         40.34859        44.51960        -0.23530
C         39.10511        43.83818        -0.14251
C         40.44349        45.94542         0.11923
C         39.20404        46.63413         0.56164
C         40.45779        48.75178         0.43174
C         39.48216        48.02285         0.69563
C         42.60511        25.42483         2.70600
C         41.27101        26.00480         2.64762
C         42.86572        27.43931         0.86038
C         41.59185        26.68604         0.82298
C         42.86946        28.79758         0.65597
C         41.67347        29.49844         0.18934
C         42.83421        31.72650         0.51189
C         41.62402        30.87198         0.17424
C         42.78213        33.02160        -0.33282
C         41.56524        33.78354         0.13199
C         42.74916        35.83267        -0.56289
C         41.58708        35.15153         0.14171
C         42.74790        37.33896        -0.46172
C         41.59830        38.02438        -0.22061
C         42.78432        40.21971         0.02848
C         41.53733        39.51839        -0.49522
C         42.82219        41.67240        -0.38955
C         41.54599        42.36556        -0.83335
C         42.75792        44.52519        -0.78395
C         41.57619        43.85056        -0.55317
C         42.70711        46.00148        -1.19018
C         41.63310        46.75301        -0.38484
C         42.91447        48.78078        -0.50831
C         41.48321        48.33194        -0.60391
C         43.73628        25.71665         2.30233
C         45.39883        27.41963         1.41305
C         44.14628        26.58590         1.11630
C         45.35045        28.76327         0.53814
C         44.13111        29.59806         0.98363
C         45.30053        31.58713         0.00997
C         44.13547        30.98073         0.37582
C         45.34553        33.02996        -0.42530
C         44.07136        33.79795        -0.21169
C         45.34419        35.90254        -0.33587
C         44.07744        35.16063        -0.27482
C         45.36749        37.27834        -1.00702
C         43.98328        38.09183        -0.94221
C         45.19654        40.09501         0.02127
C         44.04654        39.46200        -0.30149
C         45.32951        41.57570        -0.28871
C         44.00319        42.31948        -0.44805
C         45.16618        44.56146        -0.16729
C         44.07321        43.76447        -0.93816
C         45.35529        45.96804        -0.84233
C         44.11009        46.71413        -1.15612
C         43.87324        48.14315        -0.96604
C         47.75714        27.47280         0.71268
C         46.71882        26.85512         0.98076
C         47.94601        28.86437         0.37513
C         46.65432        29.56023         0.40369
C         47.77745        31.57742        -0.60479
C         46.58033        30.88892         0.04142
C         47.81724        33.09425        -0.42003
C         46.56356        33.73811         0.17446
C         47.84071        35.89113         0.04778
C         46.51029        35.22647        -0.11605
C         47.84511        37.36375        -0.17813
C         46.66403        38.15030        -0.68513
C         47.59498        40.07302         0.82134
C         46.38459        39.23987         0.36556
C         47.53824        41.57105         1.02969
C         46.26034        42.36994         0.64332
C         47.62166        44.56342         0.79650
C         46.52203        43.78266        -0.02313
C         47.63673        45.91173         0.10170
C         46.64593        46.47711        -0.37037
C         50.46312        29.03093         0.18116
C         49.12681        29.52622         0.12401
C         50.23931        31.47378        -1.15474
C         49.14152        31.04667        -0.13027
C         49.99514        32.99920        -1.58927
C         48.95673        33.75525        -0.74689
C         50.29516        35.88721        -0.20369
C         48.99864        35.27145        -0.77534
C         50.25321        37.30751         0.25827
C         49.04260        38.02115         0.18563
C         50.16595        40.14006         1.18405
C         48.93324        39.37704         0.82267
C         50.08356        41.58420         1.65685
C         48.76105        42.39452         1.54053
C         50.08993        44.39876         1.57315
C         48.94043        43.77224         0.77930
C         51.48538        29.73350        -0.11766
C         52.78263        31.86016        -0.76294
C         51.65485        31.02122        -0.61211
C         52.53545        33.03789        -1.22485
C         51.68509        34.10087        -1.57291
C         52.69862        36.22367        -0.44577
C         51.61673        35.22878        -0.58090
C         52.65336        37.34271         0.05794
C         51.52958        38.02694         0.79113
C         52.53554        40.39125         1.13523
C         51.46926        39.53706         0.53594
C         52.54292        41.57051         1.50174
C         51.39888        42.35544         1.98673
C         51.13717        43.77812         1.81303
O         36.37043        28.66155        -2.25228
O         42.55028        32.80091        -1.72350
O         34.98902        41.00790        -1.48529
O         41.61833        46.32327         0.97721
O         41.20850        28.13099        -1.72221
O         38.30834        37.90730         1.61878
O         49.53639        39.27383         2.16243
O         49.73255        33.11118        -2.85869
O         43.64528        38.41398        -2.36848
O         44.97177        46.20663        -2.20693
O         45.61152        33.08458        -1.90776
O         34.27806        34.87044        -2.27785
O         50.65885        41.71503         3.01244
O         51.02682        34.95836         0.69722
O         35.88554        35.08539         1.40423
O         47.24154        40.63357         2.12180
O         33.12112        42.57412        -1.04318
O         36.39574        38.43579        -1.36228
O         34.10673        39.22669         1.67271
O         39.64884        35.41360         1.70402
O         42.73546        32.16259         1.89219
H         43.08301        31.43597         2.46174
O         39.10280        29.41746        -2.30182
H         39.99039        29.54184        -2.71182
O         49.40136        43.50692        -0.51742
H         49.09328        44.21256        -1.12752
O         42.76214        40.19905         1.48914
H         43.50998        40.74712         1.81375
O         36.62095        43.06183        -1.68519
H         36.23490        42.38951        -2.29203
O         41.55986        39.69835        -1.93137
H         40.78576        39.21218        -2.30713
O         31.82752        33.95305         2.60080
H         31.81436        33.08966         3.05970
O         45.54582        36.90839        -2.39911
H         44.74845        36.39892        -2.67318
O         36.87359        31.22873        -2.68397
H         37.64993        30.70604        -3.00311
O         40.85330        37.72295         1.93007
H         40.09544        37.46386         2.50470
O         34.39575        43.21390         2.37983
H         34.56244        43.96552         2.98581
O         37.86235        29.19428         1.07481
H         37.15402        28.66306         1.49902
O         45.46675        27.66919         2.81097
H         46.37180        27.96290         3.04508
O         32.61900        37.25774         2.42728
H         32.86775        38.14271         2.78070
O         31.50613        37.72616        -1.02940
H         30.91096        38.34536        -1.50491
O         34.58538        33.09890         0.82739
H         34.11988        32.26372         1.09419
O         30.86597        34.85335        -0.76450
H         30.70079        35.72675        -1.18736
O         47.06097        43.67512        -1.33701
H         46.33727        43.43651        -1.96736
O         50.14434        30.71349        -2.34098
H         49.90135        31.36590        -3.05604
O         44.61883        39.35907        -2.88343
H         45.42098        38.77860        -3.01544
O         46.58365        33.49823         1.59920
H         47.25430        34.12559         1.96830
O         41.76083        25.47059         0.13154
H         40.88589        25.04555         0.00069
O         31.99587        33.44212        -2.42654
H         32.17309        34.35508        -2.73500
O         41.57608        42.31102        -2.30264
H         41.56709        41.34107        -2.53122
O         40.16811        40.27688         1.45615
H         41.07025        40.19627         1.85332
O         33.86749        30.53692         0.77440
H         33.08789        29.93562         0.80983
O         44.12672        29.85083         2.41278
H         44.35711        29.01227         2.88826
O         44.59783        44.83952         1.11118
H         45.31130        45.13120         1.72477
O         46.00945        38.45722         1.53219
H         45.99373        39.07477         2.29933
O         48.85946        35.67063        -2.14799
H         49.09997        34.88930        -2.71444
O         44.41453        43.70414        -2.34205
H         43.70211        43.18758        -2.78422
O         44.41523        25.80744        -0.02302
H         43.58904        25.32402        -0.25961
O         45.52699        42.55329         1.85876
H         46.12490        42.99436         2.50647
O         51.40390        39.72943        -0.86925
H         51.68859        40.63803        -1.09767
O         49.48839        31.66938         1.11809
H         48.70148        31.69043         1.70211
O         47.17089        44.77385         2.12297
H         47.94782        44.98985         2.68593
O         42.30238        46.01622        -2.56847
H         43.07648        45.72839        -3.10309
O         42.53835        35.56979        -1.99542
H         42.50651        34.56850        -2.09850
O         47.10349        38.80356        -1.89178
H         47.45647        38.10419        -2.48586
O         47.65826        31.24047        -1.99657
H         46.89425        31.73579        -2.37549
O         40.97758        48.56923        -1.88130
H         41.04829        49.52087        -2.09680
O         51.72191        34.57225        -2.88126
H         51.09634        33.99649        -3.40862
O         34.97446        44.93094        -0.76013
H         35.73882        45.37787        -1.17846
O         36.85343        43.18527         1.92298
H         37.13524        43.90806         2.52163
O         38.23649        26.79161        -1.67708
H         37.58097        27.22939        -2.27289
O         44.87959        32.00997        -2.54018
H         43.90203        32.29224        -2.39619
O         48.39912        42.76639         2.88009
H         48.43150        41.95001         3.42690
O         41.03691        26.95764         3.60319
H         41.84959        27.13069         4.11788
O         30.58800        43.08761        -0.83794
H         31.28888        43.60517        -1.29237
O         45.03651        28.35294        -0.80675
H         45.74640        27.75186        -1.12157
O         39.06288        39.06151        -1.78859
H         38.21383        38.59268        -1.99413
O         41.83289        29.24606        -2.41474
H         42.79733        29.11801        -2.22932
O         45.93835        41.49340        -1.60133
H         45.42308        40.82851        -2.13135
O         51.66257        37.77519         2.17206
H         51.68784        36.80430         2.30880
O         35.73313        37.37720         2.10690
H         35.06589        36.89892         2.64241
O         36.54000        33.89491        -1.95781
H         36.68122        33.01872        -2.40767
O         48.20687        35.68020         1.45801
H         47.74252        36.36280         1.99034
O         30.77877        31.16455        -2.41282
H         30.73010        32.11998        -2.63403
O         34.19732        29.84500        -2.80241
H         34.86964        29.30451        -3.27507
O         38.01674        36.06070        -1.49163
H         37.58570        35.30585        -1.97319
