         324
 CSIRO Nanostructure Databank - Neutral Graphene Oxide Data Set
C         30.41262        57.12457         0.23268
C         30.06026        58.41279         0.63421
C         29.12602        59.33455         0.11119
C         30.44225        61.43365         0.58079
C         29.27490        60.72862         0.28259
C         32.93133        52.95059         0.60921
C         32.92539        54.36515         0.59222
C         31.72476        55.10371         0.45938
C         32.92633        57.23075         0.75805
C         31.67806        56.50477         0.55144
C         32.99185        58.67630         0.78221
C         31.85919        59.47188         1.05035
C         32.95610        61.52088         0.42505
C         31.74921        60.84660         0.70261
C         35.37542        48.64871         0.87627
C         35.32550        50.04173         0.71171
C         34.13691        50.79637         0.75800
C         35.37890        52.95309         0.64177
C         34.13545        52.21939         0.64868
C         35.36947        54.35574         0.72589
C         34.16256        55.08464         0.70368
C         35.41150        57.23918         0.67794
C         34.15470        56.52345         0.74067
C         35.43171        58.65788         0.50974
C         34.20524        59.38027         0.54793
C         35.42163        61.49374         0.25669
C         34.19159        60.81852         0.42572
C         37.78342        44.31119         1.02281
C         37.79728        45.73088         0.97824
C         36.60196        46.49335         1.04370
C         37.85482        48.57560         0.78140
C         36.60322        47.90344         0.89012
C         37.89778        50.00762         0.43666
C         36.57247        50.76922         0.38774
C         37.85412        52.88043         0.45598
C         36.63066        52.22956         0.53738
C         37.84184        54.38133         0.30974
C         36.66534        55.05906         1.04570
C         37.85701        57.24127         0.55643
C         36.65041        56.54512         0.72307
C         37.88971        58.65484         0.37922
C         36.66364        59.36250         0.36892
C         37.88222        61.48551         0.12101
C         36.65540        60.80157         0.24341
C         40.15183        39.96547         0.72075
C         40.18112        41.36624         0.71934
C         38.98179        42.12887         0.83381
C         40.18039        44.25817         0.55057
C         38.96043        43.55254         0.82429
C         40.23634        45.65694         0.64233
C         39.05672        46.41348         0.85087
C         40.29587        48.56871         0.72753
C         39.08553        47.85904         0.84186
C         40.37170        50.04514         1.03082
C         39.12855        50.78650         0.60014
C         40.37567        52.91889         0.52505
C         39.11388        52.16859         0.49037
C         40.40222        54.28121         0.48688
C         39.14633        55.04010         0.68423
C         40.40953        57.18995         0.14921
C         39.15495        56.52787         0.68825
C         40.38693        58.69427         0.25210
C         39.14662        59.36571         0.26262
C         40.33787        61.49640        -0.07300
C         39.12466        60.80152         0.12113
C         42.68828        35.65416         0.22784
C         42.62788        37.06983         0.33838
C         41.42011        37.75068         0.51517
C         42.72998        39.95909         0.65245
C         41.37369        39.17706         0.80309
C         42.65557        41.39461         0.32168
C         41.43957        42.05410         0.44341
C         42.65167        44.22133        -0.22195
C         41.34392        43.48038         0.10263
C         42.70286        45.66395        -0.00211
C         41.54384        46.34307         0.54740
C         42.66381        48.58601        -0.08851
C         41.56104        47.86462         0.62596
C         42.73188        50.05969         0.08812
C         41.63884        50.72865         0.56368
C         42.86791        52.90940         0.17012
C         41.69131        52.21107         0.81718
C         42.91098        54.28973         0.19196
C         41.69169        55.02209         0.60183
C         43.01417        57.27743         0.43177
C         41.69706        56.51834         0.61958
C         42.84184        58.68084        -0.11604
C         41.60019        59.38935         0.03762
C         42.78367        61.50099        -0.43439
C         41.57418        60.81770        -0.15622
C         45.13364        32.84645         0.25573
C         43.92505        33.53617         0.22818
C         45.14987        35.66098        -0.10224
C         43.90874        34.95056         0.11468
C         45.07444        37.07603        -0.16796
C         43.87792        37.80921         0.20585
C         45.23377        39.92739         0.30395
C         43.91664        39.19177         0.25697
C         45.16747        41.38907        -0.04578
C         43.89844        42.09984         0.01963
C         45.18834        44.24817         0.03197
C         43.90221        43.47599        -0.13701
C         45.10311        45.66413        -0.46195
C         43.91735        46.34866        -0.28069
C         45.14557        48.53397        -0.69170
C         43.86402        47.81157        -0.54892
C         45.07500        50.00255        -0.99233
C         43.92559        50.75936        -0.36820
C         45.10119        52.85453        -1.03970
C         43.96089        52.13631        -0.35687
C         45.20165        54.32237        -0.69466
C         44.08254        55.03065        -0.25074
C         45.23319        57.14232        -0.70598
C         44.10826        56.46993        -0.25246
C         45.17248        58.60799        -1.05476
C         43.97453        59.35410        -0.53053
C         45.22395        61.46148        -0.80265
C         43.98654        60.79294        -0.63581
C         46.34517        33.53308         0.16859
C         47.70451        35.54492        -0.01742
C         46.40413        34.93382        -0.05409
C         47.97682        36.80219        -0.56795
C         46.15442        37.84680        -0.65863
C         47.59979        39.83526        -0.59933
C         46.35196        39.21112        -0.41811
C         47.58984        41.32159        -0.82108
C         46.34711        42.04803        -0.35674
C         47.57914        44.15397        -0.68409
C         46.38830        43.47998        -0.45372
C         47.57959        45.60262        -0.99908
C         46.25734        46.35424        -1.13804
C         47.60027        48.54616        -0.76256
C         46.32467        47.84151        -0.78581
C         47.60959        49.98020        -0.75482
C         46.38743        50.71777        -0.82909
C         47.63427        52.82532        -0.87583
C         46.40106        52.10629        -0.85728
C         47.62332        54.25104        -1.04773
C         46.43022        54.99937        -0.96955
C         47.65487        57.16982        -1.20997
C         46.45368        56.44270        -1.01109
C         47.65669        58.60227        -1.00762
C         46.48509        59.31516        -0.84256
C         47.67102        61.47770        -0.69585
C         46.47680        60.77595        -0.78564
C         48.99478        37.74392        -0.28623
C         50.04209        39.94122        -0.30324
C         48.85596        39.13744        -0.50787
C         50.05051        41.31804        -0.25695
C         48.85192        42.06486        -0.49180
C         50.05881        44.23037        -0.30973
C         48.84316        43.45839        -0.55762
C         50.04333        45.60959        -0.32898
C         48.86219        46.36310        -0.80194
C         50.03921        48.55304        -0.55367
C         48.81692        47.84682        -0.67576
C         50.07326        49.96057        -0.58693
C         48.84686        50.68891        -0.71227
C         50.11176        52.84115        -0.78944
C         48.85827        52.11331        -0.80809
C         50.12868        54.20828        -1.03621
C         48.88193        54.92206        -1.36532
C         50.29485        57.15740        -1.56347
C         48.89859        56.46180        -1.55995
C         50.22963        58.66015        -1.32247
C         48.92710        59.36766        -1.11501
C         50.18064        61.54651        -1.06320
C         48.97612        60.76249        -0.50481
C         51.32920        42.02597         0.13967
C         52.48011        44.22758         0.14073
C         51.30478        43.53216        -0.01055
C         52.53691        45.66595         0.13286
C         51.21892        46.40369         0.17501
C         52.58711        48.52538        -0.25344
C         51.29458        47.77853        -0.45538
C         52.48847        49.97499        -0.07950
C         51.31129        50.67430        -0.34096
C         52.49401        52.82644        -0.14913
C         51.32243        52.12643        -0.40525
C         52.61773        54.25020        -0.48118
C         51.37772        54.98999        -0.94506
C         52.56084        57.17492        -0.39405
C         51.23214        56.46610        -0.55703
C         52.61288        58.61684        -0.47962
C         51.46226        59.35906        -0.88108
C         52.63785        61.45837        -0.51125
C         51.46497        60.77208        -0.82166
C         53.71791        46.36294         0.27602
C         54.90845        48.51252         0.62817
C         53.77663        47.80633         0.27624
C         54.92541        49.95643         0.69557
C         53.62149        50.64234         0.55547
C         54.89630        52.85479         0.68787
C         53.61224        52.16751         0.53216
C         54.85393        54.31957         0.70034
C         53.71671        55.03748         0.09530
C         54.99603        57.17019         0.12609
C         53.70170        56.43640        -0.00201
C         54.92717        58.62088         0.53662
C         53.78180        59.33751        -0.11612
C         55.03163        61.44848         0.15574
C         53.83040        60.75654        -0.18107
C         56.06222        50.69929         0.94458
C         57.31949        52.85554         1.14967
C         56.08095        52.15270         0.95593
C         57.41389        54.25827         1.08984
C         56.16114        55.02685         0.90476
C         57.47145        57.15857         0.82018
C         56.25740        56.43392         0.44307
C         57.47740        58.58909         0.55044
C         56.24095        59.33888         0.40408
C         57.41073        61.46571         0.87639
C         56.24647        60.75547         0.42067
C         58.58626        55.01095         1.30784
C         59.72963        57.19069         1.76806
C         58.60829        56.44997         1.26994
C         59.73552        58.59244         1.83775
C         58.73723        59.37991         1.09423
C         59.52747        61.44844         2.17579
C         58.53826        60.80913         1.37897
C         60.66864        59.32396         2.61514
C         60.56856        60.71485         2.74768
O         55.88398        56.78032        -0.96123
O         42.80092        48.18631        -1.49434
O         41.73643        43.78029        -1.28567
O         42.21864        39.59336         1.95681
O         37.20928        50.29267        -0.84123
O         55.23881        54.89135         2.03469
O         52.19164        47.97256        -1.57472
O         47.03725        37.22048        -1.54279
O         47.42313        41.44520        -2.36425
O         58.59185        59.03322        -0.28951
O         48.79926        55.57098        -2.69858
O         44.75223        50.04083        -2.50254
O         53.22540        51.41395         1.74115
O         41.93852        47.07564         1.79935
O         30.80844        58.89653         1.74480
O         52.38799        54.62134        -1.90768
O         48.44914        45.89238        -2.15347
O         41.71880        55.79542         1.88201
O         49.53862        59.32147        -2.44916
O         39.21580        55.79071         1.95684
O         45.93986        46.36454        -2.57230
H         46.80639        46.33612        -3.04442
O         44.97234        58.63606        -2.52012
H         45.75637        58.21236        -2.93167
O         50.23839        62.81594        -0.41581
H         50.12800        62.64431         0.54448
O         45.62312        39.88424         1.73272
H         44.79930        39.89771         2.26749
O         45.78133        49.31757        -3.19023
H         45.46270        48.37520        -3.17475
O         50.53257        56.49866         0.72191
H         51.18393        56.34941         1.43986
O         49.21578        60.63962         0.93303
H         48.38328        60.33848         1.35462
O         41.87714        52.36113         2.27766
H         41.80231        53.31787         2.49204
O         37.68790        54.66092        -1.11528
H         37.09514        53.98133        -1.50057
O         54.61864        58.55575         1.98668
H         54.45898        59.47432         2.29214
O         50.89246        56.97567        -2.84821
H         50.36143        57.48039        -3.50016
O         44.78467        52.82679        -2.47043
H         45.61555        52.96725        -2.97126
O         45.38892        44.35198         1.49987
H         45.41868        43.43796         1.85672
O         48.63784        40.96737        -2.97122
H         49.07119        41.79898        -3.28295
O         43.55440        57.52550         1.76829
H         43.17512        56.83068         2.35886
O         36.80663        54.90020         2.47701
H         37.65251        55.34032         2.73941
O         40.37166        50.09461         2.50274
H         40.88305        50.90034         2.76798
O         50.93958        46.68154         1.59264
H         50.94615        45.82640         2.07249
O         40.40774        56.90019        -1.28773
H         39.62971        57.33818        -1.69354
O         52.45602        41.46688        -0.54812
H         52.34391        41.63168        -1.50655
H         29.71350        56.54548        -0.38984
H         28.29965        58.96825        -0.51471
H         30.39682        62.53034         0.49633
H         28.40855        61.34438        -0.00953
H         31.97236        52.41155         0.58976
H         30.78568        54.55460         0.29209
H         32.94929        62.59987         0.21428
H         34.43539        48.10050         1.03985
H         33.17553        50.27738         0.88911
H         35.42230        62.58915         0.15409
H         36.82711        43.78990         1.17924
H         35.64007        45.96883         1.14585
H         37.87773        62.58066         0.01421
H         39.18507        39.44274         0.67591
H         38.03666        41.58915         0.99373
H         40.31263        62.58665        -0.21779
H         41.75741        35.07746         0.33800
H         40.47086        37.20441         0.40970
H         42.77900        62.59841        -0.50870
H         45.13716        31.75406         0.37590
H         42.97484        32.99529         0.34313
H         45.23347        62.56187        -0.81501
H         47.28850        32.97214         0.23726
H         48.50662        34.99952         0.50362
H         47.66318        62.57645        -0.63915
H         49.92611        37.39085         0.18343
H         50.99103        39.41191        -0.12667
H         50.03885        61.72558        -2.15834
H         51.50114        41.80606         1.23305
H         53.41700        43.66472         0.27306
H         52.62672        62.55812        -0.49478
H         54.65783        45.80505         0.41368
H         55.82009        47.96650         0.91669
H         55.02235        62.54782         0.18818
H         57.01981        50.17568         1.08923
H         58.22910        52.26557         1.33747
H         57.32872        62.55548         1.00896
H         59.51808        54.48479         1.56452
H         60.55196        56.63549         2.24387
H         59.44716        62.52809         2.36606
H         61.46822        58.78258         3.14057
H         61.31037        61.24088         3.36516
