         280
 CSIRO Nanostructure Databank - Neutral Graphene Oxide Data Set
C         30.30521        31.52534        -1.29191
C         30.42414        32.75971        -1.26807
C         30.44249        35.96246        -0.96832
C         30.36239        37.19665        -1.01067
C         30.38064        40.20178        -0.15770
C         30.40662        41.34723         0.32958
C         32.71486        28.85952        -0.64998
C         31.60149        29.31251        -0.97497
C         32.78374        31.47088        -1.25285
C         31.48950        30.65760        -1.66694
C         32.76905        32.92099        -1.20854
C         31.53176        33.65455        -1.12625
C         32.76649        35.73228        -0.71085
C         31.53883        35.03019        -0.90822
C         32.65186        37.17210        -0.21059
C         31.64276        38.02740        -1.10694
C         32.79421        40.13925         0.01182
C         31.56423        39.46894        -0.62234
C         32.71186        41.38988         0.80356
C         31.49772        42.06346         0.92737
C         32.70142        43.89056         1.85732
C         31.63161        43.37988         1.50612
C         35.38459        27.54357         0.68444
C         35.25210        28.72701        -0.16542
C         34.00437        29.43090        -0.49348
C         35.21317        31.63511        -0.69233
C         33.96397        30.81325        -0.82568
C         35.23275        32.89417        -1.54782
C         33.97903        33.66782        -1.19966
C         35.27847        35.75793        -0.84032
C         33.99081        35.05216        -0.92089
C         35.21513        37.24469        -0.70248
C         34.00905        37.87196        -0.07736
C         35.30805        40.13963        -0.06041
C         34.06056        39.35055         0.12122
C         35.16611        41.62545         0.26727
C         34.05942        41.85977         1.38294
C         35.32021        44.18613         1.81732
C         34.06914        43.37992         1.87513
C         35.46375        45.63958         1.64234
C         37.52554        27.87043         1.82120
C         36.37962        27.08148         1.25132
C         37.69947        29.06030         0.82456
C         36.53359        29.52712         0.00110
C         37.79257        31.58738        -0.69690
C         36.48647        30.99720        -0.27504
C         37.83065        33.02401        -1.02640
C         36.58279        33.71817        -1.58680
C         37.79557        35.85438        -0.76511
C         36.47463        35.12984        -1.02320
C         37.74567        37.34798        -1.08826
C         36.44976        38.07774        -0.82887
C         37.77341        40.20001        -0.36966
C         36.48236        39.51461        -0.39522
C         37.74111        41.70410        -0.16745
C         36.53841        42.19219         0.63593
C         37.87507        44.38599         1.24831
C         36.61431        43.51898         1.31602
C         37.73625        45.84904         0.61223
C         36.44349        46.26686         1.23953
C         39.14996        24.72395         1.03424
C         39.03639        25.92927         1.40736
C         39.99189        28.07643         2.35866
C         38.85758        27.17539         1.91636
C         40.19777        29.02716         1.13727
C         38.90044        29.68256         0.67758
C         40.28071        31.70769        -0.17465
C         39.04227        30.89439        -0.19606
C         40.27321        32.99171        -0.65606
C         39.03536        33.68067        -1.02247
C         40.32962        35.87895        -0.92251
C         39.05823        35.16051        -1.39402
C         40.37956        37.39114        -1.10388
C         39.02848        38.12254        -1.05234
C         40.22968        40.15796        -0.13079
C         38.96141        39.54254        -0.59684
C         40.26017        41.55751         0.37167
C         39.01677        42.35382         0.30729
C         40.31663        44.42176         0.53529
C         39.05436        43.68233         0.62514
C         40.29636        45.95807         0.33404
C         39.01985        46.54170         1.00929
C         40.02590        47.70328         3.11770
C         39.28826        47.23029         2.12431
C         42.50475        25.37113         3.31072
C         41.24132        26.07937         3.23561
C         42.54208        27.99863         2.29200
C         41.29019        27.33933         2.63401
C         42.59198        29.30610         1.79490
C         41.32463        30.05326         1.40926
C         42.75122        31.89991         0.37460
C         41.56021        30.98064         0.19490
C         42.79705        33.07345        -0.29605
C         41.58026        33.68617        -0.99503
C         42.78647        35.95039        -0.68673
C         41.49728        35.20165        -0.77118
C         42.78708        37.35431        -0.09592
C         41.51961        38.09523        -0.42206
C         42.76249        40.23024        -0.29497
C         41.51935        39.45291        -0.30526
C         42.76184        41.58112        -0.04471
C         41.59168        42.26788         0.64619
C         42.75306        44.57706         0.19238
C         41.49495        43.75902         0.39364
C         42.70834        45.81510         1.07678
C         41.58203        46.56162         0.91451
C         42.59113        47.83944         3.25560
C         41.29549        48.06344         2.67785
C         43.51830        25.94049         2.85146
C         45.02819        27.81529         2.08145
C         43.81199        27.25986         2.42534
C         45.17291        29.28971         1.97005
C         43.85130        30.05818         1.80197
C         45.28096        31.88650         0.70771
C         43.91589        31.48884         1.27058
C         45.33375        33.14308         0.10430
C         44.13022        33.70731        -0.61383
C         45.28901        35.96415        -0.13221
C         44.07988        35.22057        -0.66293
C         45.27929        37.41199        -0.57478
C         44.03494        38.14991        -0.47543
C         45.17372        40.30076        -1.23282
C         43.99056        39.51441        -0.65718
C         45.27301        41.67564        -0.53706
C         43.95569        42.42453        -0.43604
C         45.14179        44.24155         0.87015
C         44.00751        43.74374         0.30988
C         45.15210        45.56327         1.54461
C         43.82396        45.94621         2.13461
C         43.60013        47.24338         2.84927
C         47.40414        27.63810         1.47120
C         46.30019        27.21811         1.87879
C         47.75535        29.09234         1.81362
C         46.47130        29.88803         1.56390
C         47.76497        31.81956         0.66889
C         46.51363        31.18697         1.01307
C         47.80835        33.12708         0.15287
C         46.57552        33.80943        -0.07467
C         47.73078        35.87276        -0.69013
C         46.57226        35.21379        -0.41003
C         47.67691        37.26662        -1.17039
C         46.44065        38.05514        -0.92537
C         47.63064        40.03124        -1.65649
C         46.45896        39.47363        -1.22893
C         47.72598        42.03612        -0.75821
C         46.42044        42.34261        -0.20094
C         47.75114        44.19956         0.90008
C         46.39051        43.38544         0.89477
C         47.42500        45.43196         1.27836
C         46.39240        46.14430         1.68532
C         50.11114        29.12321         0.68747
C         48.93056        29.63970         1.05352
C         50.29145        31.72480         0.32741
C         49.07325        31.19020         1.07016
C         50.28483        33.11672         0.00068
C         49.06855        33.79857        -0.10799
C         50.20628        35.80097        -1.26456
C         49.07987        35.28554        -0.37318
C         50.24921        37.18943        -1.45682
C         48.96104        37.92380        -1.56037
C         50.21281        40.21496        -1.33514
C         48.97046        39.41533        -1.66346
C         50.20341        41.77353        -0.99501
C         48.95348        42.29126        -0.22886
C         50.28736        44.14972         0.44968
C         49.03615        43.39820         0.85618
C         51.26644        29.48544         0.19824
C         52.55544        31.66868        -0.36562
C         51.43915        30.87525         0.08145
C         52.64719        32.89548        -0.46939
C         51.59300        33.93284        -0.26775
C         52.58603        35.80753        -1.70224
C         51.41479        34.87427        -1.47391
C         52.54849        37.05170        -1.59026
C         51.45689        37.96257        -1.58327
C         52.59662        40.31555        -1.27442
C         51.47204        39.35356        -0.98736
C         52.63057        41.52078        -0.99995
C         51.54211        42.21291        -0.22315
C         51.32617        43.68779        -0.03527
O         49.84914        39.95873        -2.71313
O         38.31948        37.84107        -2.32199
O         41.49011        47.92468         1.25628
O         35.72143        31.80681         0.67446
O         44.54011        29.97681         3.10968
O         32.42194        40.32449        -1.41268
O         47.64894        41.38098        -2.01792
O         40.82900        37.48951        -2.55859
O         35.54123        37.89724        -1.98094
O         36.27007        28.74701        -1.21095
O         37.63468        42.30834        -1.56797
O         48.09432        37.34468        -2.60211
O         40.08118        40.45506         1.34845
O         36.84390        42.27209         2.06131
O         35.01519        32.32309        -2.90291
O         38.54484        30.69991        -1.57258
O         43.58696        35.78596        -1.92062
O         34.19718        38.41473         1.26452
O         34.85997        43.61427         3.06104
O         44.36075        33.22364        -2.04540
O         40.11674        25.59711         3.79406
H         40.19390        24.63442         3.94662
O         32.05581        37.09916         1.09241
H         32.66769        37.53223         1.73526
O         48.07144        29.14258         3.20310
H         48.84256        28.56231         3.36947
O         51.87577        34.73759         0.88135
H         52.17984        34.15312         1.60670
O         49.28874        31.52669         2.47478
H         50.11792        31.09667         2.77267
O         36.80126        41.45829        -2.39106
H         37.44649        40.98733        -2.97452
O         51.46216        39.13080         0.42587
H         52.23518        38.57550         0.66095
O         46.39045        42.65163         2.13333
H         46.01205        43.22637         2.83270
O         36.89784        33.92427        -2.97648
H         36.08316        34.22049        -3.44256
O         34.35209        41.04971         2.50929
H         35.09015        41.47811         3.00338
O         40.93383        30.94574         2.46570
H         40.59892        30.40400         3.22012
O         38.27217        44.60433         2.61783
H         38.08667        43.78092         3.12015
O         37.11917        28.41473         3.07462
H         36.79539        27.68676         3.64360
O         51.54799        41.65239         1.05878
H         52.32820        41.96829         1.55696
O         43.55068        44.89673         3.09088
H         42.67677        45.06328         3.50351
O         49.38223        35.90043         0.94285
H         50.29880        35.60596         1.18760
O         42.70306        45.12018        -1.17281
H         43.02883        44.40889        -1.78144
O         40.21669        46.21104        -1.08029
H         41.09880        45.94402        -1.45737
O         37.58457        45.74839        -0.77887
H         38.39789        46.08343        -1.22803
O         43.77984        32.36076         2.42994
H         44.18632        31.88387         3.19152
O         34.37490        33.37113        -3.70964
H         34.15341        32.86737        -4.53083
O         37.99149        35.83365         0.67842
H         37.91372        34.90823         0.99474
O         43.68246        42.78126        -1.84719
H         43.88887        41.97449        -2.39550
O         39.61210        28.86453         3.50257
H         39.55066        28.27274         4.28108
O         40.83219        38.90249        -2.90630
H         41.63744        38.96414        -3.47617
O         41.92960        30.15847        -0.95331
H         41.88959        30.72343        -1.75648
O         45.17207        35.94537         1.31585
H         46.00902        36.27667         1.70338
O         49.26238        42.81238         2.12668
H         49.20428        43.50550         2.81533
O         41.86859        42.15046         2.07032
H         41.39281        41.34314         2.38128
O         39.05558        35.27232        -2.81635
H         39.03405        36.23013        -3.05394
O         40.58683        28.14464         0.07899
H         40.96188        28.67901        -0.66368
O         34.67096        42.33932        -0.87543
H         35.21652        42.11155        -1.66455
O         42.76911        37.15813         1.34453
H         42.72321        38.03602         1.77737
O         51.18950        34.04683        -2.60427
H         51.08433        34.61174        -3.39741
O         44.83518        40.53147        -2.64446
H         45.65976        40.82898        -3.09044
O         50.25284        42.45761        -2.23945
H         49.85016        41.87628        -2.92583
O         41.73487        33.50425        -2.42347
H         42.48110        34.07617        -2.71800
O         31.51693        30.47819        -3.05639
H         30.70724        30.00594        -3.33908
O         45.50343        33.92256        -2.57105
H         45.10424        34.72933        -2.98551
O         32.11014        37.99954        -2.43002
H         31.86316        38.82975        -2.88884
