         477
 CSIRO Nanostructure Databank - Neutral Graphene Oxide Data Set
C         38.90893        49.14492        -3.31461
C         38.28993        49.40122        -4.52685
C         39.51376        51.47546        -4.71926
C         38.59531        50.57576        -5.23418
C         40.13315        48.67194        -0.70790
C         40.52372        49.76908        -1.50986
C         39.85424        50.04708        -2.76747
C         41.09771        52.19001        -2.91046
C         40.16547        51.23649        -3.48305
C         41.36673        53.43655        -3.59863
C         41.88201        49.19118         0.86312
C         40.77773        48.40638         0.48681
C         42.32021        50.28717         0.11370
C         41.57185        50.62683        -1.05807
C         42.60919        52.90795        -1.05543
C         41.78697        51.87981        -1.73193
C         42.77849        54.24176        -1.75297
C         42.19527        54.38111        -3.09641
C         44.88321        46.01980         1.77799
C         43.73327        46.76485         1.99967
C         44.86137        48.82141         1.24832
C         43.72360        48.14189         1.73494
C         44.82777        50.30391         0.95216
C         43.54424        51.04980         0.51001
C         45.04828        52.96394        -0.33154
C         43.63739        52.52092         0.02323
C         45.22559        54.32526        -0.89260
C         44.03997        55.02550        -1.52359
C         45.19975        57.17734        -1.25595
C         44.04447        56.49401        -1.49708
C         47.38048        44.49694         1.37589
C         47.30373        45.86650         1.18860
C         46.08458        46.65659         1.40349
C         47.36010        48.78874         1.20372
C         46.06598        48.07199         1.21646
C         47.37055        50.31255         1.19489
C         46.11957        50.96659         0.64887
C         47.48681        53.00179         0.02349
C         46.17793        52.28052         0.13381
C         47.53771        54.49081         0.04851
C         46.37522        55.16827        -0.49987
C         47.78753        57.13344        -0.95765
C         46.40154        56.51379        -0.82437
C         47.89890        58.64105        -1.05606
C         49.83328        44.36757         1.08381
C         48.60542        43.77251         1.32361
C         49.84192        45.77120         0.65691
C         48.51367        46.54191         0.69454
C         49.84879        48.69638         0.38899
C         48.61279        48.01426         0.92667
C         49.86581        50.17729         0.66454
C         48.67493        50.85100         0.65924
C         49.90244        53.01140         0.92355
C         48.73824        52.28735         0.33947
C         49.83166        54.49167         1.07817
C         48.67443        55.17048         0.41183
C         50.15772        57.14744        -0.05125
C         48.72506        56.66713         0.18659
C         50.34414        58.52367        -0.63087
C         49.08950        59.26049        -0.94874
C         52.38473        41.67750         1.79753
C         51.16824        42.32032         1.58071
C         52.34756        44.39961         1.12365
C         51.11672        43.69073         1.26648
C         52.33718        45.82982         0.88225
C         51.11242        46.52840         0.73661
C         52.32508        48.63644         0.67870
C         51.10977        47.93430         0.68317
C         52.33334        50.09716         0.94445
C         51.12420        50.90581         0.73622
C         52.42662        53.02298         1.10341
C         51.18813        52.27831         0.94859
C         52.42575        54.43921         1.31813
C         51.10189        55.24567         1.52890
C         52.01420        57.55384         1.47794
C         51.16866        56.63226         0.90216
C         52.23149        58.88450         1.00360
C         51.68446        59.24742        -0.36764
C         52.79350        61.44515        -0.06036
C         51.73829        60.74368        -0.56664
C         54.93347        40.20512         2.07370
C         54.90439        41.71061         2.09089
C         53.60027        42.35790         1.66882
C         54.85262        44.42681         1.06838
C         53.59486        43.72830         1.29938
C         54.83411        45.83489         0.72652
C         53.55938        46.54117         0.73195
C         54.72115        48.76025         0.09232
C         53.54025        47.93655         0.57302
C         54.89423        50.00997         0.95441
C         53.63148        50.80944         1.16411
C         54.91408        52.93764         0.98357
C         53.66646        52.28936         1.07311
C         54.90934        54.44049         0.81551
C         53.69000        55.10232         1.44122
C         55.09152        57.13104         1.90266
C         53.86777        56.39152         1.97086
C         55.12585        58.51769         2.10544
C         53.29041        59.67577         1.49234
C         55.09683        61.49365         1.03807
C         53.70987        60.87132         0.89960
C         55.06344        62.91436         1.55692
C         57.30988        40.13817         1.44609
C         56.06703        39.50414         1.86104
C         57.26792        41.57543         1.24144
C         56.10867        42.31097         1.40582
C         57.29537        44.36502         0.67330
C         56.07514        43.72108         1.09029
C         57.21818        45.73443         0.16062
C         55.98761        46.50823         0.34839
C         57.31896        48.65789         0.10749
C         56.00553        47.92806        -0.20790
C         57.35687        50.06260         0.30942
C         56.16470        50.76317         0.82225
C         57.37716        52.91941         0.69004
C         56.13933        52.23702         0.85900
C         57.42232        54.34373         0.94228
C         56.24198        55.05421         1.18191
C         57.51408        57.12884         1.58169
C         56.31360        56.45221         1.51611
C         57.55448        58.56313         1.90088
C         56.28280        59.31452         1.86321
C         57.50426        61.43100         1.68702
C         56.26133        60.70762         1.68192
C         57.52432        62.90351         2.02976
C         56.17646        63.56647         1.90784
C         59.73349        37.29876         1.32880
C         58.61030        38.02974         1.55088
C         59.56289        40.07823         0.34525
C         58.47007        39.41246         1.17518
C         59.80121        41.50461         0.78307
C         58.55173        42.28581         1.05840
C         59.77556        44.37501         0.43543
C         58.52737        43.70838         0.70218
C         59.77746        45.76031         0.25853
C         58.54888        46.48004        -0.04822
C         59.78188        48.65365         0.06045
C         58.53238        47.95770         0.03042
C         59.79019        50.07525         0.06380
C         58.56791        50.78094         0.24589
C         59.81283        52.92365         0.24375
C         58.58055        52.21698         0.40614
C         59.83224        54.35498         0.47339
C         58.69312        55.00710         0.92772
C         59.80393        57.22951         0.57158
C         58.83573        56.41878         1.44780
C         59.98119        58.64881         1.04592
C         58.82796        59.33796         1.61275
C         59.94137        61.52142         1.18781
C         58.73818        60.79630         1.51078
C         59.89670        62.93829         1.11754
C         58.70023        63.64041         1.39913
C         59.89653        65.76450         1.17942
C         58.69670        65.04063         1.33367
C         62.40790        35.92123         1.19921
C         62.22070        37.16993         0.66697
C         60.90206        37.84239         0.61081
C         62.14980        40.02752         0.00922
C         60.86252        39.28808         0.18221
C         62.17465        41.46259        -0.02061
C         61.00435        42.21185         0.29225
C         62.24160        44.28158        -0.03597
C         61.02065        43.61585         0.30146
C         62.31791        45.74475         0.13250
C         61.03008        46.51519         0.33110
C         62.24327        48.64222        -0.14445
C         61.02496        47.95885         0.05195
C         62.22747        50.05834        -0.24043
C         61.02508        50.77549        -0.06866
C         62.25308        52.91981        -0.18805
C         61.01271        52.21901        -0.03417
C         62.22791        54.38516        -0.23556
C         61.05110        55.11558         0.24119
C         62.34096        57.23619         0.28316
C         61.10321        56.49331         0.35936
C         62.36824        58.65179         0.50785
C         61.14376        59.37299         0.79196
C         62.40182        61.51329         0.77370
C         61.15443        60.80994         0.91043
C         62.41210        62.97189         0.72706
C         61.08934        63.68181         0.55035
C         62.37848        65.83083         1.02647
C         61.11761        65.13172         0.96944
C         62.40795        67.18830         1.46992
C         64.74292        35.74864         0.45492
C         63.65018        35.21872         1.10170
C         64.62091        37.07433        -0.19060
C         63.31039        37.82710        -0.09072
C         64.56813        39.99543        -0.45647
C         63.33218        39.31301        -0.18595
C         64.59994        41.40435        -0.58344
C         63.38597        42.14460        -0.35972
C         64.58839        44.28821        -0.96063
C         63.38536        43.56717        -0.39407
C         64.67846        45.75816        -0.60562
C         63.51015        46.48724        -0.31664
C         64.71296        48.59264        -0.57590
C         63.49453        47.90369        -0.32031
C         64.75243        50.04823        -0.52146
C         63.45551        50.79255        -0.71277
C         64.71365        52.94369        -0.19207
C         63.47118        52.24818        -0.31840
C         64.77508        54.33144        -0.12122
C         63.55573        55.13420        -0.28113
C         64.80795        57.21802         0.24300
C         63.56220        56.54832         0.11700
C         64.83678        58.61749         0.47980
C         63.60129        59.34583         0.59485
C         64.88659        61.48719         1.07824
C         63.59647        60.77078         0.75370
C         64.84849        62.90955         0.55011
C         63.60363        63.68875         0.58596
C         64.79907        65.95450         0.82593
C         63.59934        65.16291         0.71681
C         64.82486        67.25664         1.42443
C         63.57923        67.87565         1.69960
C         67.33463        32.97558         0.42287
C         66.13645        33.67200         0.63790
C         67.10503        35.70166        -0.30181
C         66.00342        35.03449         0.27879
C         67.06798        37.10873        -0.53835
C         65.85314        37.84170        -0.44312
C         66.99002        39.93890        -0.99187
C         65.79754        39.24625        -0.61988
C         67.08735        41.38463        -0.93131
C         65.86029        42.11328        -0.77420
C         67.10654        44.23778        -0.73519
C         65.88243        43.53112        -0.76928
C         67.15408        45.68377        -0.77976
C         65.90448        46.44571        -0.75667
C         67.14664        48.62407        -1.10501
C         65.90780        47.85948        -0.71937
C         67.20427        50.02614        -0.49625
C         65.93903        50.73046        -0.37794
C         67.22535        52.88356         0.20156
C         65.90211        52.12023         0.25137
C         67.24439        54.34169        -0.01490
C         66.02144        55.04754         0.00455
C         67.26872        57.15497        -0.01195
C         66.02789        56.46933         0.07000
C         67.28242        58.56371         0.24930
C         66.10824        59.29055         0.52832
C         67.32793        61.41459         0.47249
C         66.14222        60.73134         0.66881
C         67.34001        62.85314         0.28393
C         66.02137        63.40820         0.05209
C         67.27681        65.84361         0.87374
C         66.04661        65.48864         0.32461
C         67.24279        67.04204         1.63596
C         66.10413        67.86867         1.68745
C         67.38318        69.99121         1.38782
C         66.30134        69.29751         1.86867
C         69.69239        31.40076        -0.38097
C         69.63610        32.80967        -0.49897
C         68.41822        33.54667        -0.23768
C         69.57048        35.69343        -0.90708
C         68.27037        34.91717        -0.86038
C         69.54900        37.11028        -0.99439
C         68.24675        37.77831        -0.99090
C         69.87083        40.13650        -1.17674
C         68.07519        39.11216        -1.38575
C         69.62759        41.43712        -0.69377
C         68.33736        42.09664        -0.82713
C         69.54926        44.21590        -0.31697
C         68.33224        43.50825        -0.63143
C         69.58809        45.64347        -0.37359
C         68.37914        46.34818        -0.72218
C         69.70051        48.51986        -0.58123
C         68.43450        47.81624        -0.93125
C         69.67959        49.94312        -0.08866
C         68.39849        50.67794        -0.34699
C         69.69054        52.85871        -0.51270
C         68.49153        52.13098        -0.07033
C         69.70791        54.26304        -0.51001
C         68.47304        55.01788        -0.24184
C         69.66743        57.16845        -0.76064
C         68.46333        56.42658        -0.31547
C         69.74477        58.62259        -0.41467
C         68.58838        59.23249         0.29973
C         69.75493        61.49459        -0.22494
C         68.61651        60.72605         0.41392
C         69.84474        62.88299         0.43599
C         68.50155        63.60595         0.34083
C         69.83700        65.83717         0.38332
C         68.53618        65.06591         0.64153
C         69.73461        67.30594         0.15186
C         68.94009        68.11727         0.99875
C         69.13615        70.02634        -0.47328
C         68.50387        69.40367         0.66400
C         68.87308        71.37737        -0.82122
C         71.99869        31.39976        -1.10014
C         70.85813        30.70509        -0.67732
C         71.97107        32.78944        -1.20195
C         70.80655        33.51634        -0.89720
C         71.99925        35.71076        -0.94615
C         70.78976        34.98424        -0.92880
C         71.99130        37.09528        -0.89997
C         70.78749        37.82678        -0.91793
C         71.84869        39.87899         0.13249
C         70.86278        39.27601        -0.68376
C         71.81628        41.24792         0.37310
C         70.71907        42.05378        -0.02351
C         71.85407        44.20122         0.51344
C         70.70678        43.49493         0.10155
C         71.90123        45.58367         0.43237
C         70.80270        46.32808        -0.03965
C         72.06174        48.51527        -0.05101
C         70.90858        47.77419        -0.14823
C         72.08671        49.92576        -0.40343
C         70.94421        50.65499        -0.51662
C         72.09801        52.82827        -1.16526
C         70.82165        52.04845        -1.11333
C         72.09380        54.19354        -1.10092
C         70.91481        54.95164        -0.83842
C         72.16131        57.13028        -0.48618
C         70.96419        56.44075        -1.11790
C         72.20609        58.47130        -0.22717
C         71.05232        59.31920        -0.29632
C         72.23049        61.51128        -0.32399
C         71.07298        60.73356        -0.20789
C         72.16266        62.93383        -0.41577
C         71.01609        63.64893        -0.16443
C         71.29016        65.70644        -1.62531
C         71.06142        65.16740        -0.22805
C         70.95030        66.97151        -1.95163
C         70.25387        67.86051        -1.02433
C         70.63738        69.89734        -2.41065
C         70.02573        69.25821        -1.29833
C         70.37798        71.22148        -2.70903
C         69.48487        71.96600        -1.91174
O         68.43213        67.54865         2.18881
O         43.93495        51.00389         1.90802
O         41.82780        54.09575        -0.66980
O         68.09947        52.48911         1.33655
O         69.34719        58.21146        -1.77972
O         58.47858        58.88155         3.01245
O         68.93827        59.88417         1.55928
O         57.82049        45.89407        -1.19408
O         49.44596        53.60288         2.20036
O         55.76040        50.03452         2.10158
O         61.88502        46.15816         1.47842
O         49.66377        48.60511        -1.10827
O         52.81332        57.09197         2.54378
O         52.87023        50.32572         2.32100
O         69.39712        48.24279        -1.98062
O         69.05185        39.67644        -2.21577
O         54.01264        59.19173         2.60234
O         63.67633        37.11932        -1.32327
O         49.05293        46.05603        -0.55897
O         62.78263        54.89411        -1.50511
O         45.06604        54.40966        -2.37408
O         42.54017        48.82231         2.04690
O         48.38318        52.51744        -1.06617
O         60.64201        38.22869        -0.80711
O         50.56634        57.30770        -1.45909
O         65.99986        64.57326        -0.72849
O         69.54062        65.34247         1.70867
O         48.26145        48.32591         2.30264
O         59.48694        41.86796         2.15636
O         64.94435        61.52990         2.54520
H         64.12162        61.96084         2.85978
O         66.98611        48.87263        -2.53153
H         67.89618        48.99415        -2.89388
O         55.05492        42.09201         3.50805
H         55.93328        41.77269         3.80675
O         69.72170        49.82600         1.37438
H         69.55476        50.71887         1.74904
O         57.80895        62.93589         3.47290
H         58.61247        62.39636         3.63219
O         64.35116        44.28380        -2.41773
H         65.12082        44.71768        -2.84450
O         43.34057        53.35472         1.17305
H         43.66392        52.86430         1.96638
O         50.96934        55.44123         2.95570
H         50.58104        54.60968         3.31792
O         70.14621        62.67795         1.83466
H         70.06427        63.55545         2.27704
O         52.66411        58.71454        -1.32126
H         52.29810        57.85546        -1.64675
O         59.40460        56.30350         2.77986
H         59.25021        57.17009         3.23299
O         72.19992        65.60230         0.57086
H         71.98353        65.41108         1.50858
O         48.27096        57.32106         1.39958
H         48.76873        56.94261         2.15625
O         56.02707        47.75661        -1.65862
H         56.72685        47.07772        -1.85757
O         59.16272        57.35028        -0.74154
H         59.82695        57.70342        -1.37078
O         70.42151        51.79849        -2.52239
H         70.48553        52.65570        -2.99644
O         65.62479        51.86154         1.66270
H         66.50043        51.82182         2.11603
O         60.87133        63.70561        -0.92011
H         60.03307        64.19245        -1.07392
O         69.39391        61.71420        -1.61253
H         69.43635        60.85431        -2.08298
O         55.56564        61.61109        -0.35144
H         55.26436        60.81708        -0.84309
O         48.20696        56.57542        -2.22352
H         49.13461        56.86659        -2.39717
O         54.26050        49.36152        -1.15148
H         54.63154        48.81550        -1.88688
O         63.30681        50.82616        -2.18760
H         62.54587        51.40967        -2.39626
O         47.39646        50.74134         2.59443
H         47.93986        50.07959         3.08345
O         59.00755        40.21780        -0.99522
H         59.19315        39.36930        -1.46227
O         50.80391        49.27250        -1.70650
H         51.22305        48.55035        -2.23445
O         67.90939        34.66024        -2.27498
H         67.03367        34.21777        -2.27625
O         71.15981        56.54336        -2.56184
H         70.66855        57.34978        -2.84861
O         54.76227        54.68694        -0.63598
H         55.53562        54.28422        -1.08565
H         38.66305        48.21394        -2.78689
H         37.56476        48.68474        -4.93668
H         39.73179        52.38286        -5.29677
H         38.10622        50.78047        -6.19648
H         39.29678        48.03007        -1.01184
H         40.93723        53.59757        -4.59576
H         40.46443        47.57127         1.12617
H         42.47632        55.25618        -3.70003
H         44.85665        44.93551         1.94568
H         42.81873        46.28465         2.37065
H         45.19801        58.27507        -1.32793
H         43.10353        57.02923        -1.69022
H         46.48876        43.93170         1.68042
H         47.00608        59.23939        -1.29307
H         48.55769        42.70815         1.59287
H         49.14836        60.35414        -1.05720
H         52.36928        40.61828         2.08618
H         50.24154        41.74097         1.68542
H         52.95213        62.49059        -0.36719
H         51.06783        61.22169        -1.29534
H         54.02772        39.65925         2.37450
H         54.09627        63.44011         1.55313
H         56.03207        38.40758         1.93358
H         56.10122        64.60539         2.26407
H         59.78057        36.26531         1.69943
H         57.78976        37.55629         2.10905
H         59.84342        66.85494         1.30193
H         57.77089        65.59770         1.52900
H         61.58261        35.41725         1.72171
H         61.46269        67.69446         1.70476
H         63.70684        34.22565         1.56790
H         63.54721        68.89168         2.11579
H         67.40904        31.94825         0.80727
H         65.30402        33.14779         1.12519
H         67.32907        71.09046         1.43289
H         65.45529        69.88724         2.25646
H         68.79681        30.83901        -0.08173
H         68.18776        71.97092        -0.20071
H         72.91646        30.85026        -1.35092
H         70.87978        29.60966        -0.59483
H         72.87610        33.31240        -1.53972
H         72.96299        35.18472        -0.94934
H         72.94676        37.63697        -0.86478
H         72.66363        39.27341         0.55286
H         72.64219        41.69917         0.93888
H         72.74016        43.65745         0.86628
H         72.81941        46.10471         0.73530
H         73.02444        48.03262         0.17173
H         73.06898        50.36958        -0.62451
H         73.02763        52.30035        -1.42077
H         73.03358        54.73373        -1.28522
H         73.08919        56.54984        -0.38046
H         73.16347        58.91888         0.08088
H         73.21070        61.02554        -0.43430
H         73.07765        63.47832        -0.69499
H         71.81712        65.06906        -2.35039
H         71.18326        67.34305        -2.95989
H         71.34101        69.33537        -3.03971
H         70.86782        71.69737        -3.56971
H         69.28074        73.01751        -2.15668
