         261
 CSIRO Nanostructure Databank - Neutral Graphene Oxide Data Set
C        -11.23156         0.54745         0.95328
C        -10.00171         1.40545         1.16962
C         -8.69668         0.63439         0.91330
C         -7.46293         1.45910         0.81932
C         -6.31637         1.02863        -0.08795
C         -4.96758         1.62829         0.36498
C         -3.90364         0.73055         0.97229
C         -2.55619         1.48331         1.17277
C         -1.28387         0.79896         0.75766
C          0.05110         1.54737         0.85075
C          1.31072         0.75584         0.70769
C          2.65172         1.42476         0.86753
C          3.80316         0.61225         0.34866
C          5.07699         1.36340         0.33753
C          6.30393         0.72692         0.90312
C          7.38643         1.76523         0.95644
C          8.87483         1.42029         0.97478
C          9.76116         1.80464        -0.18103
C         10.81667         0.87903        -0.62658
C         -9.98897         2.67392         0.33782
C         -8.90414         3.68081         0.64231
C         -7.58307         2.96027         0.99564
C         -6.31757         3.74807         0.96622
C         -4.99400         3.05288         0.80224
C         -3.78228         3.75406         1.36414
C         -2.50147         2.96372         1.42339
C         -1.16711         3.71728         1.44910
C          0.13508         2.96662         1.35308
C          1.47978         3.71935         1.21696
C          2.75829         2.93064         0.93467
C          3.91675         3.68383         0.18475
C          5.25601         2.87072         0.29864
C          6.75884         3.08172         0.47963
C          7.79672         4.18115         0.63831
C          8.75925         4.12151        -0.54252
C          9.70700         3.04276        -0.77476
C         -8.67879         4.72473        -0.48104
C         -7.49574         5.66875        -0.25985
C         -6.35203         5.19552         0.57652
C         -5.03244         5.91148         0.56691
C         -3.76002         5.21887         1.04089
C         -2.44658         5.81601         0.61532
C         -1.14244         5.12572         0.91046
C          0.13924         5.94867         1.05910
C          1.48003         5.22789         1.16495
C          2.76042         6.01364         0.85374
C          4.03762         5.20675         0.53662
C          5.19536         5.99490        -0.03105
C          6.06291         5.52742        -1.20309
C          7.47875         6.06440        -1.24399
C          8.60261         5.13445        -1.44171
C         -7.42891         6.88827        -0.84730
C         -6.15053         7.65234        -0.95971
C         -4.90418         7.08843        -0.35055
C         -3.68870         7.95780        -0.20398
C         -2.43941         7.27751         0.24397
C         -1.08344         7.59504        -0.34151
C          0.09944         7.37533         0.55480
C          1.33848         8.20036         0.31133
C          2.67519         7.48404         0.47490
C          3.89644         8.25025         0.01161
C          5.20986         7.52377        -0.06847
C          6.37855         8.21115        -0.74142
C          7.57128         7.40604        -1.14329
C         -6.12822         9.11610        -1.21310
C         -4.99356         9.83836        -1.21011
C         -3.61121         9.21962        -1.09071
C         -2.59566        10.17189        -0.43094
C         -1.28684        10.07378        -0.59551
C         -0.03293        10.16911        -1.01557
C          1.22169         9.53964        -0.48337
C          2.41535         9.93245        -1.22143
C          3.74666         9.55620        -0.80110
C          4.90948        10.02603        -1.58599
C          6.12751         9.46169        -1.49371
C        -11.23820        -0.76886         0.67920
C        -10.01554        -1.56614         0.41507
C         -8.72112        -0.79255         0.41169
C         -7.55446        -1.29790        -0.38740
C         -6.28068        -0.49846        -0.39658
C         -4.97559        -1.26382        -0.33810
C         -3.76562        -0.60949         0.25247
C         -2.61326        -1.43003         0.77417
C         -1.29937        -0.70089         0.68907
C         -0.05940        -1.43510         1.11317
C          1.24183        -0.76203         0.74010
C          2.49895        -1.57455         0.74841
C          3.85878        -0.93781         0.45616
C          5.03519        -1.50999         1.24440
C          6.32271        -0.75879         1.16260
C          7.60716        -1.50104         0.94155
C          8.51315        -0.88073        -0.06446
C          9.86514        -1.44356        -0.26091
C         10.89765        -0.48603        -0.64103
C        -10.07415        -2.89569        -0.17856
C         -8.86184        -3.56087        -0.68296
C         -7.58662        -2.76312        -0.76968
C         -6.25112        -3.43502        -1.01553
C         -5.05821        -2.78118        -0.33553
C         -3.84838        -3.59220         0.05897
C         -2.60717        -2.91403         0.61656
C         -1.27244        -3.62491         0.60987
C         -0.10419        -2.92928         1.27150
C          1.19950        -3.71482         1.38711
C          2.50589        -2.98613         1.29223
C          3.80228        -3.76567         1.23533
C          5.09947        -3.02537         1.25355
C          6.32199        -3.66860         0.65062
C          7.66167        -3.01489         0.85092
C          8.95011        -3.73693         0.39152
C          9.97501        -2.80600        -0.26123
C         -8.82802        -5.08807        -0.76658
C         -7.47733        -5.72590        -1.12126
C         -6.23061        -4.91384        -1.25017
C         -4.88446        -5.61952        -1.16529
C         -3.67145        -4.94281        -0.58708
C         -2.40099        -5.74863        -0.34121
C         -1.20863        -5.08983         0.30572
C         -0.09829        -5.94488         0.88153
C          1.16637        -5.23250         1.28084
C          2.44342        -5.94875         0.88100
C          3.73696        -5.18920         0.76419
C          5.06093        -5.89049         0.59717
C          6.24656        -5.07372         0.14362
C          7.52774        -5.78242        -0.15528
C          8.69165        -5.09739        -0.24182
C         -7.43378        -7.07335        -1.27035
C         -6.18523        -7.84488        -1.49747
C         -4.88515        -7.11686        -1.33104
C         -3.74207        -7.89371        -0.74406
C         -2.41490        -7.22083        -0.56100
C         -1.33057        -8.08373         0.02125
C         -0.12760        -7.45718         0.65399
C          1.16977        -8.31962         0.79259
C          2.47751        -7.46190         0.93056
C          3.78652        -8.14744         0.64381
C          5.05525        -7.36011         0.36906
C          6.07036        -7.85070        -0.65309
C          7.49048        -7.29791        -0.35462
C         -6.17708        -9.33163        -1.36904
C         -5.04223       -10.03937        -1.19933
C         -3.77176        -9.39234        -0.77154
C         -2.45099       -10.06720        -0.89537
C         -1.28707        -9.45107        -0.57393
C          0.05324       -10.10160        -0.84978
C          1.28981        -9.34152        -0.36632
C          2.49947        -9.85983        -0.67291
C          3.72429        -9.61738         0.20116
C          4.99636       -10.10694        -0.44773
C          6.05257        -9.35468        -0.77763
O          3.98597         9.52996         0.65392
O          1.32164         9.47909         0.97808
O          1.88608        -3.22127         2.57987
O         -0.75752        -4.07462        -0.67703
O         -1.96123        -6.36224        -1.62127
O          2.87910        -5.38679        -0.40834
O         -5.34736        -7.47339        -2.66306
O          5.23059         5.46823         1.31842
O         -1.31767         0.09597        -0.51838
O         -4.56653         2.66702        -0.56453
O         -1.21634        -8.01332         1.46511
O          8.02849        -0.09659        -0.88090
O          3.32034        -7.94875         2.00468
O         -8.44325        -2.91001        -1.94826
O          7.92162         4.93289         1.56958
O         -6.17177        -3.94414        -2.35883
O         -5.98652         6.12788         1.64335
O          4.43687         0.96544        -0.91211
O          5.56278        -6.80817         1.62448
O         -2.50236         1.99676         2.52790
O          3.04147         2.10269         2.09878
O         -3.93437        -0.66977        -1.18223
O         -1.72865         5.06503        -0.43253
O          6.18536         3.02022        -0.84878
O          6.64987         1.42717         2.15664
O          6.03743        -3.95433        -0.76813
O          1.66730         4.52767         2.41635
O          1.70576        -1.42149        -0.48176
O          1.08032        -9.19484         1.86207
O         -7.73311         0.71287         2.02847
O         -3.15588         8.15131         1.14607
O         -4.96014        -3.42450         0.98825
O         -6.97165         3.42234         2.23088
O         -0.90720         7.62300        -1.55682
O          4.58621        -3.62603         2.46567
O         -5.18046         6.84595        -1.75730
O         -9.00244        -1.64528         1.56118
O          2.92183         7.04141         1.85588
O         -0.44333         3.32804         2.63225
O         -7.09788        -0.63303        -1.59963
O         -0.12228         7.06728         1.95213
O          9.32739         0.78410         1.90951
O          6.23030         8.19053         0.71954
O          0.69868         1.41201        -0.45214
O         -3.93557        -4.91933        -2.01809
O         -0.28925        -2.04754         2.41005
O         -4.03825        -8.63441         0.47893
O          7.97506        -2.31214         2.08299
O         -2.86092        -2.27417         1.91009
O          5.53038         5.11092        -2.21893
O          0.26849        -5.74808         2.28838
O          5.60108        -0.94953         2.43302
O         -3.88887         4.73992         2.41102
O          5.62522        -7.28975        -1.91651
H          6.11477        -7.72688        -2.64381
O        -10.00107         1.82477         2.56568
H         -9.15394         1.49510         2.95989
O         -9.37861         4.41704         1.78589
H         -9.59269         3.75611         2.48829
O          3.49147         3.61185        -1.18187
H          4.28009         3.69144        -1.77368
O         -3.20559         8.87641        -2.41289
H         -2.34246         8.39710        -2.37621
O          4.21121        -1.44419        -0.85019
H          3.48798        -1.21443        -1.47642
O          9.66431        -4.12376         1.60416
H          9.50476        -3.41961         2.27642
O          8.00657        -7.92487         0.81909
H          7.41598        -7.68797         1.57020
O          0.17072       -10.37166        -2.25228
H          0.08474        -9.53039        -2.74608
O         -4.40959         0.36404         2.26755
H         -3.99650         0.95080         2.94638
O         -6.66453         1.69922        -1.30689
H         -6.01816         1.45662        -2.00319
O          3.51363       -10.44302         1.35941
H          2.72110       -10.06496         1.83493
O         -8.43265         3.98855        -1.67973
H         -8.17177         4.60718        -2.39216
O         -9.29170        -5.63102         0.47663
H         -8.67916        -5.37160         1.19529
H         11.84231        -0.91923        -1.00798
H         11.68827         1.39772        -1.06324
H         10.41870         3.23645        -1.59642
H          9.25757         5.23817        -2.32204
H          8.54030         7.92280        -1.22357
H          6.95969         9.86110        -2.09207
H          4.75730        10.90099        -2.23492
H          2.29191        10.43117        -2.19298
H          0.15132        10.87721        -1.84628
H         -2.98772        10.87504         0.32546
H         -5.04664        10.92307        -1.38763
H         -7.09706         9.62014        -1.35075
H         -8.29413         7.27409        -1.41102
H         -9.61761         5.33882        -0.59538
H        -10.95666         3.07638        -0.00673
H        -12.19428         1.05738         1.11074
H        -12.20100        -1.29413         0.58212
H        -11.02909        -3.44073        -0.18980
H         -9.57461        -5.40196        -1.54034
H         -8.36254        -7.65055        -1.13913
H         -7.12479        -9.85494        -1.56800
H         -5.07009       -11.13892        -1.23195
H         -2.43126       -11.07078        -1.34703
H          0.06632       -11.09905        -0.33655
H          2.54912       -10.67194        -1.41714
H          5.05057       -11.19698        -0.59412
H          6.94324        -9.83031        -1.21842
H          8.16730        -7.57695        -1.20392
H          9.60539        -5.65708        -0.49960
H         10.94815        -3.26831        -0.49692
