         276
 CSIRO Nanostructure Databank - Neutral Graphene Oxide Data Set
C        -10.03645         0.54244        -2.87521
C         -9.21715         1.44049        -2.05492
C         -8.76826         0.98098        -0.69487
C         -7.46365         1.58752        -0.14166
C         -6.25784         0.81730         0.37739
C         -4.97298         1.55444         0.76008
C         -3.80597         0.84267         1.39104
C         -2.50546         1.59909         1.63997
C         -1.19486         0.87167         1.74052
C          0.11485         1.65379         1.65342
C          1.41020         0.90335         1.60953
C          2.63716         1.52361         2.28249
C          3.98464         0.82237         1.93470
C          5.23723         1.56162         1.51655
C          6.23132         0.72592         0.71203
C          7.11234         1.33703        -0.32289
C          8.17643         0.53929        -1.01889
C          9.24452         1.23117        -1.79960
C         10.51340         0.46939        -1.97405
C         -8.93567         2.71276        -2.44468
C         -8.13151         3.63377        -1.60512
C         -7.30183         3.04533        -0.48821
C         -6.01658         3.72900        -0.08090
C         -4.73516         2.90373         0.07389
C         -3.64862         3.75591         0.75244
C         -2.51005         3.10204         1.46690
C         -1.21858         3.83609         1.81696
C          0.07075         3.10344         2.11458
C          1.38695         3.88238         2.23529
C          2.70306         3.07767         2.11186
C          3.96211         3.80483         1.67460
C          5.30695         3.08762         1.33842
C          5.93093         3.49776         0.00137
C          7.30710         2.83691        -0.21296
C          8.18915         3.43483        -1.30477
C          9.16723         2.71226        -1.89843
C         -7.72051         4.96131        -2.22655
C         -6.92781         5.82654        -1.27409
C         -5.85292         5.15004        -0.48546
C         -4.48365         5.79124        -0.67716
C         -3.36790         5.10290         0.13355
C         -2.20218         5.90443         0.63829
C         -1.21354         5.35048         1.65215
C          0.03338         6.16681         1.97450
C          1.37739         5.42336         2.17554
C          2.67122         6.14259         1.73333
C          3.89682         5.30579         1.35103
C          4.84780         5.81599         0.27556
C          5.72739         4.87167        -0.49645
C          6.77655         5.52171        -1.34533
C          8.18059         4.94104        -1.35956
C         -6.98829         7.17466        -1.23321
C         -5.97153         7.93865        -0.46224
C         -4.64031         7.26033        -0.27161
C         -3.40686         8.09620        -0.13776
C         -2.14895         7.37279         0.29423
C         -1.01389         8.21083         0.74559
C         -0.01102         7.72985         1.78091
C          1.36602         8.46233         1.56191
C          2.56569         7.56162         1.15548
C          3.47141         7.99090         0.03470
C          4.59645         7.11080        -0.42543
C          5.13935         7.32245        -1.84064
C          6.50374         6.68693        -1.96125
C         -6.02513         9.42117        -0.38064
C         -4.96669        10.13746         0.03880
C         -3.59903         9.55624         0.14602
C         -2.56396        10.25870         1.01632
C         -1.18698         9.70093         0.79938
C         -0.05040        10.42661         0.79885
C          1.18576         9.65868         0.59734
C          2.02388         9.99190        -0.40515
C          2.99095         9.00422        -0.98844
C          4.16309         9.60237        -1.73429
C          5.15693         8.80729        -2.15216
C         -9.99011        -0.81793        -2.90324
C         -8.98851        -1.63906        -2.23500
C         -7.74374        -0.96199        -1.77392
C         -7.13577        -1.52134        -0.50600
C         -6.24304        -0.70709         0.38556
C         -4.95142        -1.42697         0.74260
C         -3.73922        -0.67115         1.22553
C         -2.52374        -1.44124         1.70627
C         -1.21674        -0.66872         1.70669
C          0.04002        -1.37886         1.28840
C          1.34813        -0.61016         1.37569
C          2.61483        -1.40152         1.50425
C          3.95972        -0.68667         1.68347
C          5.20559        -1.43971         1.31109
C          6.53163        -0.65847         1.27515
C          7.65725        -1.41037         0.55561
C          8.48735        -0.83690        -0.52854
C          9.36432        -1.69611        -1.42966
C         10.59432        -0.86037        -1.76693
C         -9.08558        -2.98964        -2.04857
C         -8.01631        -3.76319        -1.36843
C         -6.99596        -3.01554        -0.56577
C         -6.35641        -3.63659         0.67332
C         -4.97744        -2.96323         0.76249
C         -3.77436        -3.72993         1.20157
C         -2.53611        -2.98910         1.65148
C         -1.23185        -3.72548         1.58114
C         -0.07868        -2.90050         0.96860
C          1.24238        -3.70201         1.09356
C          2.55962        -2.86105         1.09310
C          3.74247        -3.36226         0.27732
C          5.05010        -2.52239         0.23982
C          6.28828        -3.40179         0.04945
C          7.58756        -2.94452         0.75513
C          8.73238        -3.66220         0.02231
C          9.59809        -3.07242        -0.83323
C         -8.18001        -5.19904        -1.04628
C         -7.36049        -5.87133        -0.20153
C         -6.33762        -5.17961         0.64661
C         -5.15887        -5.95412         1.19216
C         -3.86588        -5.21472         1.50540
C         -2.55794        -5.95474         1.46392
C         -1.16363        -5.27623         1.38439
C         -0.23015        -5.66566         0.22154
C          1.11442        -4.88406         0.13732
C          2.37026        -5.50862        -0.37285
C          3.67541        -4.71237        -0.41396
C          4.92602        -5.40193        -1.05264
C          6.24366        -4.80754        -0.48925
C          7.38978        -5.68891        -0.09045
C          8.60253        -5.12942         0.14616
C         -7.55082        -7.37441        -0.06745
C         -6.29300        -8.15424         0.35398
C         -5.12580        -7.47118         1.02536
C         -3.81205        -8.20831         1.13146
C         -2.61335        -7.44309         1.49947
C         -1.47969        -7.91877        -0.57822
C         -0.25998        -7.04698        -0.42527
C          1.08546        -7.75866        -0.45249
C          2.37868        -7.00076        -0.35304
C          3.63771        -7.71711        -0.72855
C          4.87567        -6.94504        -1.04265
C          6.22353        -7.66360        -1.07066
C          7.08370        -7.15924         0.10225
C         -6.02235        -9.42737        -0.35282
C         -4.83294       -10.05885        -0.32337
C         -3.66589        -9.57322         0.44935
C         -2.34068       -10.13445         0.02853
C         -1.32213        -9.39649        -0.45951
C         -0.08301        -9.99361        -1.11371
C          1.18299        -9.21538        -0.79588
C          2.37814        -9.85084        -0.76113
C          3.67950        -9.18833        -0.32315
C          4.92802        -9.84468        -0.85995
C          6.05808        -9.16982        -1.10748
O          3.72796         8.40921         1.38520
O         -6.17380         4.79520         0.88818
O          0.90549         1.59488         0.42579
O         -1.83852        -3.46080         2.85289
O         -3.24317        -5.59228         2.75026
O          8.03420         3.11280         0.96619
O         -0.98350         7.63370        -0.58367
O          1.44558        -4.81822        -1.26012
O          3.35135        -3.48080        -1.11930
O          5.79380         0.81494        -0.67949
O         -3.63326         3.72885         2.18731
O         -1.02338         5.92669         2.95097
O         -2.53815        -7.44105        -1.00764
O         -4.84470         1.43528         2.20397
O          3.66608         3.57719         3.07541
O         -9.46159         0.23784        -0.02902
O          1.43460         4.71706         3.42489
O          6.61557        -3.66688        -1.34245
O         -3.85681        -9.46789         1.89350
O          8.94661        -0.84434         0.86525
O          5.04341         3.70387        -1.10957
O         -6.28639        -5.62737         2.04694
O          1.75594        -7.52327         0.86508
O          4.72095        -1.51005         2.64601
O         -7.30016         1.32403         1.27024
O          5.03532         1.17582         2.89003
O          4.00986        -7.46186        -2.11164
O         -5.56638         7.37716         0.84108
O          0.66759        -0.80888         0.09962
O          7.53634        -3.15623         2.11474
O         -7.53767        -1.15312         0.83905
O          2.65910        -2.46932         2.49088
O         -6.61696        -3.52262        -1.85553
O         -4.05148        -3.51784        -0.21775
O          3.82647         6.05067         2.59313
O         -0.64719        -5.81930        -1.14046
O         -1.86441        -1.09063         2.93786
O         -7.15060        -0.11304        -2.42476
O         -2.10732         5.09362        -0.60470
O         -3.14536         9.08586        -1.17535
O          5.61982         7.00359         0.60240
O          1.72594         9.07353         2.75567
O          8.07041         0.60778        -2.47770
O         -6.13375        -8.16952         1.80252
O         -1.93432         1.26669         2.92891
O         -3.92456        -0.97464        -0.20088
O         -0.83084         3.43917         3.17113
O         -8.53110         3.77651        -0.21072
O         -0.31921       -10.00095        -2.52856
H         -0.32069        -9.08010        -2.86284
O          3.74663        -9.30812         1.11509
H          3.00475        -8.77969         1.49382
O          8.88266         5.41579        -0.20200
H          8.68853         4.77945         0.53779
O         -4.15085         5.66989        -2.07321
H         -3.17600         5.80566        -2.15030
O         -7.13225        -3.27849         1.81715
H         -6.99521        -3.95969         2.51436
O         -0.48788        -2.94341        -0.41389
H          0.12366        -2.38832        -0.95012
O          8.67702        -1.97315        -2.67206
H          8.35196        -1.10516        -3.02056
O          2.20164         8.22079        -1.93378
H          1.81636         8.83115        -2.59610
O         -0.55592         8.27626         2.99491
H          0.23156         8.66313         3.47878
O         -4.26971         2.56998        -1.25391
H         -4.14910         3.39732        -1.77427
O          2.41194         1.28561         3.67759
H          3.12565         1.74705         4.17382
O          6.90139        -7.26484        -2.27597
H          6.22745        -7.18236        -2.98488
O         -8.06120        -7.90460        -1.28998
H         -7.51781        -7.57741        -2.03632
O          6.24934         3.56842         2.30149
H          6.25699         2.96502         3.07745
O          4.23217         6.64221        -2.74217
H          4.55546         6.76745        -3.65763
O          1.26364        -4.37170         2.36187
H          1.59336        -3.74939         3.05149
O          4.97023        -1.67761        -0.92545
H          4.84536        -2.25224        -1.71420
O          4.88407        -5.08893        -2.45171
H          5.37194        -4.24207        -2.58176
O         -1.71869        -8.09692         2.21513
H         -2.08753        -9.00066         2.40400
O          6.29917        -7.30876         1.29284
H          6.83604        -7.02140         2.06021
O          6.99991        -0.51794         2.61190
H          7.28698        -1.42903         2.88939
O         -2.90878        10.02222         2.39397
H         -2.20472         9.46561         2.80904
O         -0.54710        -5.84993         2.54912
H         -0.90800        -5.38004         3.33391
O         -6.88298         4.65635        -3.35348
H         -6.34521         5.44471        -3.57548
H         11.55619        -1.37452        -1.91652
H         11.41200         1.03958        -2.25623
H          9.88690         3.21767        -2.56337
H          8.72313         5.30536        -2.27135
H          7.27869         7.19082        -2.56113
H          6.00619         9.21917        -2.72021
H          4.16613        10.68088        -1.95631
H          1.78784        10.88039        -1.01555
H         -0.04648        11.52691         0.81968
H         -2.57934        11.36551         0.81908
H         -5.06408        11.22071         0.20779
H         -6.99885         9.90780        -0.54164
H         -7.73328         7.73189        -1.82183
H         -8.64018         5.51417        -2.57474
H         -9.25999         3.07736        -3.43178
H        -10.78218         1.03510        -3.52043
H        -10.73676        -1.35124        -3.51228
H         -9.98308        -3.53547        -2.37894
H         -8.94763        -5.76714        -1.59562
H         -8.32944        -7.56889         0.71525
H         -6.83474        -9.82776        -0.97760
H         -4.68243       -10.96548        -0.92772
H         -2.24580       -11.23244         0.08108
H          0.03407       -11.05948        -0.79883
H          2.40222       -10.93387        -0.96568
H          4.91761       -10.94243        -0.94911
H          6.94825        -9.72506        -1.44291
H          8.03637        -7.74848         0.18620
H          9.47557        -5.75895         0.38230
H         10.32389        -3.70628        -1.36935
