         229
 CSIRO Nanostructure Databank - Neutral Graphene Oxide Data Set
C        -11.26849         0.72087        -0.03971
C        -10.18425         1.41978         0.64337
C         -9.20759         0.55769         1.27362
C         -7.26900         1.65710         1.43411
C         -6.06713         0.77805         1.56405
C         -4.86525         1.40795         0.83671
C         -3.59889         0.71008         1.24292
C         -2.43459         1.38913         1.42698
C         -1.27183         0.47711         1.95828
C          0.11120         1.06512         2.00365
C          1.24813         0.64610         1.40271
C          2.54313         1.40702         1.53485
C          3.83893         0.64785         1.38596
C          5.08382         1.40209         1.10731
C          6.29444         0.68418         1.01523
C          7.50116         1.35040         0.70100
C          8.75257         0.60909         0.59488
C          9.98375         1.33279         0.30490
C         11.20089         0.55283         0.11134
C         -9.93917         2.77091         0.44196
C         -8.68068         3.49983         0.53520
C         -7.39203         2.81072         0.72750
C         -6.11301         3.48845         0.38299
C         -4.86500         2.90755         0.92690
C         -3.69018         3.65157         1.04742
C         -2.49838         2.91366         1.74035
C         -1.20132         3.64848         1.41861
C          0.03531         3.18575         1.75452
C          1.24804         3.51486         0.89171
C          2.58246         2.86840         1.23987
C          3.77354         3.52390         0.99369
C          5.05216         2.80764         0.93379
C          6.25465         3.45547         0.52471
C          7.47534         2.74731         0.43396
C          8.72018         3.44528         0.10950
C          9.95506         2.69082         0.11251
C         -8.68131         4.84410         0.18430
C         -7.47780         5.60064        -0.06643
C         -6.15704         4.94209         0.13822
C         -5.00034         5.82132         0.56858
C         -3.68806         5.04023         0.68925
C         -2.42829         5.75016         0.37525
C         -1.18023         4.96381         0.73756
C          0.11818         5.64801         0.98074
C          1.29570         5.01112         0.84033
C          2.51725         5.63355         0.28866
C          3.80192         5.00574         0.72937
C          5.02765         5.68242         0.21246
C          6.21238         4.81968        -0.04382
C          7.49491         5.52021        -0.45046
C          8.73905         4.78957        -0.20139
C         -7.42504         6.80836        -0.69974
C         -6.10616         7.27599        -1.29090
C         -4.92644         6.97482        -0.39308
C         -3.76333         7.82638        -0.42338
C         -2.43294         7.24872         0.06245
C         -1.23760         7.88505        -0.58321
C          0.00589         7.49184        -0.15365
C          1.21768         7.60313        -0.92177
C          2.49378         6.87816        -0.55664
C          3.76833         7.59689        -0.82779
C          4.96513         6.98423        -0.52390
C          6.23474         7.63797        -0.80954
C          7.43711         6.98240        -0.64143
C         -6.14330         8.72770        -1.70089
C         -5.03958         9.49755        -1.75718
C         -3.73651         9.00821        -1.32498
C         -2.57607         9.58520        -1.76621
C         -1.26934         9.02248        -1.47910
C         -0.07018         9.62367        -1.86922
C          1.21071         8.90119        -1.79717
C          2.54951         9.51538        -1.90451
C          3.71558         8.91048        -1.46500
C          4.98798         9.59774        -1.60610
C          6.16995         9.00830        -1.28127
C        -11.25169        -0.62478        -0.18286
C        -10.23676        -1.51582         0.50523
C         -8.99763        -0.75201         0.92901
C         -7.63169        -1.34563         0.75797
C         -6.30105        -0.62613         0.93126
C         -5.01953        -1.46641         0.98065
C         -3.70062        -0.78459         1.22658
C         -2.44526        -1.52781         0.96521
C         -1.23473        -0.86084         1.22098
C         -0.01198        -1.47570         0.88003
C          1.23423        -0.69051         0.77627
C          2.53926        -1.42759         0.61340
C          3.81674        -0.78806         0.99170
C          4.98289        -1.49141         0.87194
C          6.26842        -0.79623         1.13070
C          7.53547        -1.53549         0.86916
C          8.77865        -0.76074         0.68762
C         10.06039        -1.53698         0.83695
C         11.24170        -0.78417         0.28581
C         -9.94202        -2.80876        -0.19616
C         -8.78214        -3.51371         0.01175
C         -7.59880        -2.85790         0.65874
C         -6.29011        -3.59054         0.61937
C         -5.06672        -2.76707         0.16606
C         -3.70012        -3.59220         0.02855
C         -2.45254        -2.87480         0.54477
C         -1.22427        -3.55063         0.46191
C          0.01725        -2.86945         0.59528
C          1.27911        -3.57804         0.52080
C          2.50186        -2.90222         0.54848
C          3.74824        -3.58716         0.42328
C          4.97936        -2.90827         0.51052
C          6.20032        -3.61150         0.27499
C          7.47827        -2.83329         0.08837
C          8.75805        -3.63517         0.22196
C          9.94991        -2.98079         0.39632
C         -8.64115        -4.81440        -0.58363
C         -7.47502        -5.58280        -0.50621
C         -6.32869        -5.05538         0.26307
C         -5.01758        -5.81382         0.22520
C         -3.75885        -5.04946         0.53000
C         -2.47117        -5.77164         0.35103
C         -1.21712        -4.98843         0.12423
C          0.04306        -5.76802         0.21469
C          1.28807        -5.07966         0.73997
C          2.51198        -5.77955         0.21910
C          3.70694        -4.96629        -0.17103
C          4.99852        -5.72195        -0.09092
C          6.21235        -5.00310         0.01502
C          7.47242        -5.72292        -0.13174
C          8.68758        -5.05177         0.00167
C         -7.35771        -6.86243        -1.09068
C         -6.11716        -7.54837        -1.17801
C         -4.94731        -7.00703        -0.62138
C         -3.60156        -7.47906        -1.11154
C         -2.43907        -7.14377        -0.20824
C         -1.26452        -7.83501        -0.27993
C         -0.01767        -7.28653         0.38919
C          1.26529        -7.89659        -0.14148
C          2.48870        -7.14404        -0.09944
C          3.73091        -7.80161        -0.45191
C          4.97337        -7.10600        -0.34741
C          6.22209        -7.81290        -0.52831
C          7.42467        -7.12696        -0.40848
C         -6.02153        -8.80653        -1.90545
C         -4.83902        -9.46825        -2.04499
C         -3.59603        -8.92168        -1.54893
C         -2.44209        -9.65978        -1.49087
C         -1.20743        -9.12765        -0.95130
C         -0.01050        -9.80839        -1.04563
C          1.25135        -9.18838        -0.69456
C          2.48348        -9.83183        -0.99689
C          3.71204        -9.17644        -0.82630
C          4.97165        -9.85228        -1.04633
C          6.16421        -9.21253        -0.87709
O         -2.76092         2.95204         3.15163
H         -2.44106         2.08719         3.53362
O          7.01890        -1.46519         2.23403
O         -0.43729        -5.32731        -1.07991
O         -3.19384         8.06946         0.97076
O          0.10639         7.02710         1.15965
O          1.29330        -5.26887         2.20281
H          0.59203        -4.69865         2.58686
O        -10.89153        -1.93328         1.76411
H        -11.07761        -1.12238         2.28418
O          7.43441        -2.37983        -1.30831
H          7.37789        -3.17431        -1.88075
O         -3.39785        -6.63000        -2.30130
H         -3.32942        -5.67478        -2.01234
O         -5.88797         4.04114        -0.99538
O          0.92180         3.00923        -0.43757
H          1.38242         3.57400        -1.09879
O         -5.06744         1.14106        -0.57715
H         -4.55086         1.78554        -1.10492
O          3.51436        -4.72092        -1.63044
H          2.66716        -4.23357        -1.73781
O         -1.62402         5.02061        -0.64908
O         -5.33308         6.35131         1.89346
H         -4.66157         7.04189         2.10070
O         -0.09255        -7.59683         1.80227
H          0.57110        -7.03117         2.26666
O         -3.47678        -3.84872        -1.35321
O          4.64247         5.78839         1.63380
O         -8.33682         1.17294         2.18850
O         -5.40739        -2.38082        -1.17374
H         -4.70365        -2.79234        -1.75816
O         10.27863        -1.62479         2.29492
H          9.40662        -1.80313         2.71149
O          6.61140         4.83304        -1.44497
O         -5.93725        -5.92939         1.35914
O         -5.75150         0.66431         2.95312
H         -6.56646         0.41416         3.43697
O         -5.91330         6.50975        -2.53190
H         -5.95122         5.55236        -2.29946
O          3.29217         0.96733         2.71836
O          1.88346        -0.76661        -0.53961
O          0.17734         2.24576         2.76281
O         -3.02376        -5.50109         1.69639
O          1.05011         7.55575        -2.35800
O         -1.72139         0.33276         3.28796
O         -6.98072        -3.38974         1.88393
O         -4.45314        -1.48543         2.30373
O          2.46201         5.53581        -1.19523
O         -6.96154        -0.62913        -0.34967
H         12.17641        -1.33872         0.11361
H         12.09750         1.09149        -0.23264
H         10.88462         3.22557        -0.13548
H          9.69962         5.30849        -0.33789
H          8.38067         7.52922        -0.79227
H          7.11507         9.55105        -1.42948
H          4.97804        10.62015        -2.01191
H          2.61329        10.53609        -2.31295
H         -0.08842        10.62473        -2.32422
H         -2.63372        10.45923        -2.43221
H         -5.09359        10.51820        -2.16587
H         -7.10594         9.12340        -2.05797
H         -8.34505         7.34654        -0.97389
H         -9.64243         5.33895        -0.02430
H        -10.75057         3.33604        -0.04914
H        -12.04985         1.31994        -0.53234
H        -12.06295        -1.12198        -0.73693
H        -10.75605        -3.27522        -0.77403
H         -9.51243        -5.22748        -1.11649
H         -8.23641        -7.30068        -1.58851
H         -6.94953        -9.24309        -2.30224
H         -4.81679       -10.45636        -2.52883
H         -2.44086       -10.69544        -1.86604
H          0.01657       -10.79679        -1.52883
H          2.46962       -10.86719        -1.36928
H          4.94941       -10.91392        -1.33285
H          7.10958        -9.75395        -1.02820
H          8.37308        -7.66525        -0.55577
H          9.62608        -5.62621        -0.02891
H         10.88036        -3.57167         0.41451
