         294
 CSIRO Nanostructure Databank - Neutral Graphene Oxide Data Set
C          1.23592         2.33856        -0.92140
C          1.08750         3.38034        -0.06590
C          2.51605         1.76021        -1.18695
C          2.23827         4.07897         0.61797
C          1.28691         6.19221        -0.38259
C          1.25865         7.61424        -0.50836
C          2.36526         5.52305         0.13390
C          2.37302         8.39638        -0.22836
C          1.07440        10.66870        -0.14251
C          1.05512        12.01560        -0.05538
C          2.31987         9.88640        -0.39073
C          2.30242        12.81971        -0.27026
C          1.18141        15.18092        -0.14091
C          1.24607        16.50524         0.08038
C          2.37242        14.33200        -0.39173
C          2.50228        17.33595        -0.06845
C          2.58398        18.50758         0.89029
C          3.65608         2.18984        -0.52969
C          3.57191         3.24296         0.58313
C          4.87713         1.47430        -0.67967
C          4.86063         4.09752         0.60580
C          3.55351         6.31424         0.61665
C          3.59469         7.74042         0.12185
C          4.86929         5.57771         0.47026
C          4.83882         8.41115         0.16285
C          3.59713        10.63564        -0.21993
C          3.50830        12.06246         0.29292
C          4.83748         9.89713         0.16524
C          4.85551        12.81005         0.23460
C          3.73221        15.07094        -0.41853
C          3.75794        16.50930         0.05011
C          4.89419        14.29080         0.16613
C          4.95484        17.13470         0.24520
C          3.76051        19.10565         1.12762
C          4.99799        18.64691         0.36880
C          6.09847         1.97332        -0.20486
C          6.13027         3.38897         0.25474
C          7.31769         1.27923        -0.22862
C          7.30262         4.19339        -0.26581
C          6.06279         6.28121         0.39749
C          6.05593         7.71302         0.28788
C          7.40683         5.55754         0.48249
C          7.37531         8.47230         0.33164
C          6.11905        10.64331         0.05440
C          6.06771        12.09844        -0.38301
C          7.29576         9.82516        -0.41105
C          7.40226        12.81918        -0.14768
C          6.20123        14.98376         0.18812
C          6.18760        16.38089         0.43005
C          7.39234        14.21176         0.36852
C          7.33762        16.98383         0.96759
C          6.31018        19.19047         0.87410
C          7.45979        18.43006         1.05875
C          8.57807         1.94218        -0.08271
C          8.59304         3.40441        -0.16257
C          9.77643         1.23170         0.02034
C          9.76092         4.10266        -0.23814
C          8.54809         6.34482        -0.11330
C          8.53846         7.68386        -0.23649
C          9.71541         5.56545        -0.68491
C          9.69812         8.44898        -0.87546
C          8.61302        10.55086        -0.21885
C          8.64856        12.01648        -0.01593
C          9.76517         9.86206        -0.33075
C          9.86880        12.58411         0.65720
C          8.53216        14.77828         0.91594
C          8.21008        16.00903         1.73168
C          9.81600        14.02635         1.08171
C         10.16229        17.13306         1.16631
C          8.72985        19.12188         1.17439
C         10.01294        18.57167         0.96135
C         11.07363         1.86919        -0.19319
C         11.05316         3.41710        -0.37044
C         12.35216         1.31417         0.24037
C         12.30778         4.12487         0.12980
C         11.01194         6.31836        -0.41961
C         11.03378         7.74578        -0.80521
C         12.30087         5.63174        -0.15524
C         12.19327         8.42520        -0.99888
C         11.11422        10.41790         0.04854
C         11.16214        11.91762         0.30842
C         12.17954         9.93881        -0.97551
C         12.36306        12.56277         0.37175
C         11.14512        14.75675         1.14518
C         11.15008        16.21381         0.74121
C         12.42454        13.98027         0.85211
C         12.29405        16.72835         0.11623
C         11.17845        19.39729         0.83783
C         12.39081        18.90660         0.30506
C         13.57190         1.99962         0.11340
C         13.56498         3.44115        -0.41698
C         14.75967         1.46222         0.63685
C         14.84266         4.22262         0.00412
C         13.52724         6.26107        -0.77176
C         13.46455         7.68284        -1.26478
C         14.85413         5.63774        -0.55619
C         14.77464         8.40766        -1.66321
C         13.57885        10.45466        -0.57173
C         13.57099        12.01379        -0.42916
C         14.67579         9.98048        -1.55535
C         14.96045        12.50215         0.05498
C         13.71810        14.74132         0.61521
C         13.64580        16.27403         0.58180
C         14.96039        14.02996         0.19647
C         14.83864        17.00796        -0.01418
C         13.71060        19.24659         0.53814
C         14.85534        18.46779         0.08392
C         15.98938         2.20896         0.65292
C         16.06795         3.34650        -0.35241
C         16.94186         2.03490         1.61662
C         17.36580         4.15884        -0.32343
C         16.00808         6.34920        -0.72356
C         16.04345         7.78612        -1.08401
C         17.31472         5.63086        -0.57680
C         17.22655         8.47861        -1.15142
C         16.02722        10.64964        -1.25932
C         16.08179        11.93876        -0.83089
C         17.23078         9.87501        -1.79023
C         17.19173        12.86614        -1.31983
C         16.09025        14.85313        -0.29469
C         16.01259        16.30013        -0.25464
C         17.26976        14.21307        -0.62983
C         17.24517        17.01273        -0.65158
C         16.04464        19.16510        -0.07533
C         17.25643        18.53977        -0.57136
C         18.07903         3.01100         1.76216
C         18.54527         3.47803         0.37462
C         19.23472         2.42450         2.53266
C         19.79476         4.35421         0.44559
C         18.47278         6.50747        -0.15129
C         18.56302         7.73374        -1.07464
C         19.79835         5.76044        -0.05009
C         19.75599         8.59348        -0.71198
C         18.56484        10.66839        -1.66151
C         18.54696        12.16995        -1.52274
C         19.88766         9.90445        -1.46918
C         19.83899        13.00600        -1.35787
C         18.52212        14.93158        -0.50491
C         18.52402        16.29776        -0.46444
C         19.73225        14.06537        -0.22669
C         19.74077        17.06035         0.01014
C         18.55401        19.23093        -0.47666
C         19.74164        18.54199        -0.34442
C         20.49805         2.81607         2.33965
C         20.90558         3.96174         1.43893
C         21.24830         5.16239         2.31906
C         20.99613         6.62573         0.35597
C         20.84960         8.07003        -0.08098
C         21.24569         6.41306         1.83994
C         22.07616         8.83099         0.05071
C         21.02512        10.77864        -0.96781
C         21.05409        12.14205        -1.10565
C         22.17200        10.10582        -0.39844
C         22.28772        12.90135        -0.95721
C         21.07080        14.87673         0.01157
C         21.02043        16.34959        -0.47004
C         22.28430        14.18662        -0.56448
C         22.23550        17.14167        -0.04081
C         20.98624        19.21769        -0.28888
C         22.18986        18.51188        -0.04394
O         11.97651        14.27845         2.22590
O          9.47941         5.49022        -2.06907
O         18.64911        11.54021        -2.85626
O         11.61512         6.28976         0.96120
O          4.92690        13.56745         1.48460
O          3.11483        10.37361        -1.55464
O         13.24330         6.56198        -2.17526
O         17.65412         4.69315        -1.65498
O          9.39358        16.69778         2.20227
O          2.32282        13.44466        -1.58089
O          9.69904        12.93068         2.06532
O         11.17180         2.57595        -1.50259
O         14.89051         8.17024        -3.14756
O          8.31138        12.69925        -1.30446
O         22.18058         6.17555        -0.33261
O         17.11631        17.81744        -1.86496
O         12.18521        17.83272        -0.65812
O          3.56246         2.44044         1.79173
O         14.72340        14.38317         1.61685
O          5.54810        10.41811         1.36747
O          7.52487        15.59987         2.90788
H          7.34378        16.39246         3.45297
O         18.78221         7.23950        -2.41910
H         19.33826         7.90414        -2.89602
O          9.48624         8.61630        -2.30998
H          8.52781         8.82630        -2.45054
O         18.90012         2.30923        -0.38868
H         19.15975         2.63159        -1.27971
O         20.00901        13.75000        -2.57097
H         19.85420        13.13965        -3.32308
O         13.46465         3.49828        -1.83628
H         14.26981         3.06467        -2.21000
O         18.19482         6.97871         1.18981
H         18.04238         6.19492         1.77079
O         17.58414         4.20893         2.45070
H         16.60393         4.26026         2.30106
O          2.47938        17.87580        -1.43552
H          2.71930        17.13206        -2.03339
O         19.67526        17.04306         1.46317
H         20.28584        16.33214         1.78743
O          7.75433         5.34625         1.86441
H          7.02493         4.82658         2.27840
O         16.71967        13.26158        -2.64409
H         16.97165        12.54551        -3.26934
O          3.37057         6.44779         2.08779
H          2.78704         5.69301         2.37189
O         14.91018         4.38383         1.45331
H         13.98554         4.29585         1.81491
O         11.40713         9.79091         1.33725
H         10.72523        10.07687         1.98316
O          5.79600         3.59903         1.66912
H          4.48521         2.46626         2.15127
O         13.61404        16.68569         1.98740
H         14.10359        15.98990         2.48962
O         12.29976         3.96337         1.57614
H         11.78796         4.73761         1.92737
O          7.04184         4.46300        -1.65610
H          7.89861         4.83207        -2.04766
O         17.05079         9.62069        -3.21009
H         17.40235        10.40638        -3.68881
O         22.09361         3.58864         0.70051
H         21.81706         2.97138        -0.00936
O          4.09266        15.19302        -1.83240
H          3.72902        14.39382        -2.28789
O          4.87625        19.20243        -0.97762
H          4.00466        18.88978        -1.33611
O         15.74856         7.03719        -3.40826
H         16.65227         7.44613        -3.46797
O         20.19711         4.67586        -0.93096
H         22.28378         5.20712        -0.14954
O          7.68098         8.75323         1.71847
H          6.89147         9.19853         2.10837
O         21.29901        14.92832         1.44492
H         21.00836        14.05399         1.79978
O         15.25519        11.99918         1.36949
H         15.01909        11.03726         1.38164
O         19.44499        13.30462         0.97778
H         18.78165        13.78912         1.51356
O          3.14685        11.88179         1.68897
H          3.73986        12.45353         2.23256
O          1.86727         4.22096         2.02222
H          2.25412         3.42331         2.46987
O         13.93823         9.83133         0.68070
H         13.13318         9.79027         1.26123
O         13.38751        12.63986        -1.71399
H         12.91941        12.00269        -2.30856
O         21.01232        16.31308        -1.91177
H         20.92946        17.23194        -2.24201
O          5.82442        12.09795        -1.81595
H          6.58123        12.55942        -2.24769
O         15.95702         2.78292        -1.67198
H         16.47097         3.37886        -2.27052
O         11.79112        10.46019        -2.25885
H         11.06001         9.88792        -2.60274
O         20.29447         9.49883        -2.82285
H         20.16173        10.28433        -3.40097
O          7.02999         9.55852        -1.81395
H          6.62561        10.37157        -2.20529
O         14.33763        10.49570        -2.84971
H         14.85077         9.97016        -3.50976
H          0.35098         1.89019        -1.39591
H          0.07858         3.74012         0.18251
H          2.58714         0.92256        -1.89569
H          0.38300         5.63968        -0.67553
H          0.32666         8.08883        -0.84548
H          0.13694        10.10880        -0.00248
H          0.09882        12.53644         0.10530
H          0.20530        14.67318        -0.09580
H          0.31222        17.05496         0.27786
H          1.66180        18.85485         1.38175
H          4.86380         0.52507        -1.23754
H          3.82747        19.97082         1.80504
H          7.31391         0.20100        -0.45109
H          6.39665        20.28894         0.89818
H          9.74952         0.15595         0.25127
H          8.66494        20.22182         1.15487
H         12.34747         0.33439         0.74502
H         11.14219        20.41230         1.25798
H         14.72217         0.49274         1.15948
H         13.92046        20.18311         1.07562
H         16.81825         1.24616         2.37563
H         16.08470        20.22665         0.21084
H         19.01398         1.61415         3.24546
H         18.56636        20.32923        -0.56234
H         21.31320         2.34202         2.90828
H         21.48908         4.96848         3.37557
H         21.50369         7.26562         2.48679
H         22.93717         8.33933         0.52225
H         23.09509        10.67724        -0.22887
H         23.23702        12.42881        -1.25251
H         23.23539        14.73675        -0.52393
H         23.18918        16.63020         0.15039
H         21.00863        20.31207        -0.39443
H         23.10836        19.08756         0.14431
