         334
 CSIRO Nanostructure Databank - Neutral Graphene Oxide Data Set
C         30.33823        57.18390         0.25237
C         30.33955        58.59112         0.36367
C         29.14611        59.34226         0.21533
C         30.34260        61.45453         0.38911
C         29.18923        60.75503         0.13789
C         32.79860        52.89896         0.03789
C         32.77228        54.31300         0.12162
C         31.55903        55.03882         0.15852
C         32.79882        57.16945         0.27425
C         31.54769        56.44860         0.23880
C         32.79216        58.60144         0.43902
C         31.58889        59.28986         0.53646
C         32.83257        61.46283         0.49304
C         31.57302        60.75566         0.89704
C         35.33815        48.67345        -0.43576
C         35.29406        50.11605        -0.29983
C         34.07420        50.77723        -0.14712
C         35.25113        52.93053         0.06519
C         34.01583        52.19556        -0.00502
C         35.24065        54.33410         0.07812
C         34.01911        55.03912         0.11728
C         35.27202        57.18639         0.25909
C         34.01009        56.46856         0.17679
C         35.24106        58.63614         0.30593
C         34.05366        59.32272         0.38932
C         35.25367        61.50048         0.14996
C         34.02962        60.78994         0.31654
C         37.63352        44.30565        -0.11502
C         37.72250        45.80812        -0.34947
C         36.56594        46.53559        -0.51087
C         37.80213        48.71903        -0.66609
C         36.51851        47.98168        -0.55390
C         37.86250        50.24846        -0.52049
C         36.51666        50.86131        -0.21885
C         37.73401        52.94249         0.36936
C         36.50390        52.22406         0.06544
C         37.75710        54.31728         0.32372
C         36.53727        55.06928        -0.16090
C         37.71040        57.20660         0.74667
C         36.47040        56.50414         0.27388
C         37.76639        58.65744         0.33928
C         36.50453        59.34323        -0.10789
C         37.70883        61.51833         0.16546
C         36.50746        60.83772         0.11472
C         40.25904        40.04921        -0.28474
C         40.25586        41.44811        -0.27666
C         39.00147        42.19113        -0.30379
C         40.19871        44.32203        -0.36497
C         38.94615        43.55137        -0.26516
C         40.17288        45.76816        -0.07504
C         39.00176        46.47529        -0.20496
C         40.25374        48.69499         0.04766
C         39.04919        47.95043        -0.38921
C         40.21793        50.00357         0.38855
C         38.85257        50.64613         0.60212
C         40.24731        52.87689         0.48123
C         38.95048        52.18137         0.87726
C         40.24924        54.30556         0.44766
C         38.99583        55.05084         0.47712
C         40.21118        57.19846         0.41821
C         38.99483        56.44715         0.51777
C         40.19870        58.57602         0.25140
C         38.95863        59.32298         0.27977
C         40.25570        61.47416        -0.07865
C         39.01033        60.82548         0.46931
C         42.71528        35.78835        -0.49017
C         42.70152        37.18452        -0.24979
C         41.48783        37.91145        -0.29365
C         42.71140        40.02107         0.00847
C         41.47462        39.31864        -0.18903
C         42.71552        41.44229         0.05435
C         41.49868        42.13459        -0.15091
C         42.76063        44.32296         0.04483
C         41.52190        43.59211        -0.30620
C         42.74300        45.70120         0.13080
C         41.46026        46.43580         0.20794
C         42.76767        48.65450        -0.03941
C         41.49533        47.92055         0.27015
C         42.76426        50.04279         0.56559
C         41.45174        50.71669         0.91849
C         42.70669        52.88466         0.54767
C         41.46503        52.18725         0.55110
C         42.70669        54.30484         0.43969
C         41.47522        54.99616         0.42923
C         42.67894        57.09640        -0.21124
C         41.52226        56.48675         0.62958
C         42.66988        58.57978        -0.06182
C         41.38763        59.26552        -0.39255
C         42.68493        61.40184        -0.50835
C         41.41341        60.76909        -0.24980
C         45.16123        32.99484        -0.96895
C         43.95011        33.68058        -0.86934
C         45.16759        35.75556        -0.35376
C         43.92916        35.07056        -0.56914
C         45.17554        37.14399        -0.01576
C         43.93380        37.87560         0.00181
C         45.14702        39.99176         0.41595
C         43.93620        39.29397         0.15039
C         45.17885        41.40739         0.47860
C         43.95550        42.16022         0.26654
C         45.17552        44.30878         0.53211
C         43.97070        43.57352         0.26959
C         45.19750        45.69714         0.49201
C         43.97146        46.45394         0.29420
C         45.28784        48.58404         0.11779
C         43.99356        47.83958         0.25860
C         45.23261        50.03112         0.56641
C         43.96040        50.73544         0.64940
C         45.16003        52.91815         0.85318
C         43.95200        52.18903         0.73080
C         45.17553        54.32529         0.69867
C         43.96113        55.03769         0.43132
C         45.17102        57.20532         0.19169
C         43.96561        56.42511         0.19575
C         45.15509        58.58646         0.10755
C         43.88232        59.36355         0.33594
C         45.12837        61.34110        -0.66254
C         43.88586        60.73147        -0.33939
C         46.37349        33.65355        -0.77454
C         47.61695        35.73180        -0.26384
C         46.40335        35.04200        -0.45779
C         47.63835        37.10623         0.10057
C         46.39160        37.80249         0.25917
C         47.65300        39.93613         0.89557
C         46.32449        39.17585         0.89898
C         47.65555        41.40578         0.70460
C         46.40854        42.09725         0.67519
C         47.66761        44.29990         0.77836
C         46.38466        43.55999         1.04739
C         47.68660        45.68189         0.86900
C         46.43136        46.43881         0.73888
C         47.68999        48.55511         1.07470
C         46.45664        47.80692         0.65446
C         47.69007        50.01706         0.71590
C         46.41775        50.70422         0.77576
C         47.75428        52.87075         0.92760
C         46.42055        52.15701         1.04863
C         47.76402        54.35387         0.74015
C         46.43336        55.09141         0.70408
C         47.61335        57.12042        -0.12359
C         46.43672        56.49076         0.21418
C         47.65201        58.55168        -0.30394
C         46.45248        59.35591         0.16939
C         47.57589        61.34627        -0.83441
C         46.36554        60.70738        -0.50970
C         48.87235        37.78041         0.21436
C         50.12555        39.99124         0.22529
C         48.96195        39.18971         0.57588
C         50.13320        41.37749         0.38110
C         48.87956        42.07428         0.59646
C         50.18890        44.18525         0.77491
C         48.89267        43.55238         0.31865
C         50.20209        45.68663         0.89346
C         48.92979        46.40991         0.81626
C         50.16591        48.50080         0.53688
C         48.95933        47.81070         0.73587
C         50.09839        49.92084         0.04028
C         48.88545        50.68834         0.51613
C         50.12192        52.80149         0.16668
C         48.94427        52.11826         0.48258
C         50.12042        54.23819        -0.04252
C         48.93296        54.95995         0.09649
C         50.10056        57.03163        -0.66115
C         48.79811        56.29573        -0.56731
C         50.02665        58.44941        -1.18611
C         48.79885        59.19974        -0.70358
C         50.03972        61.32693        -0.89569
C         48.81098        60.65212        -0.81217
C         51.35841        42.10956         0.19306
C         52.63702        44.24177         0.33033
C         51.44506        43.49434         0.39799
C         52.66004        45.66783         0.42710
C         51.45378        46.39690         0.62822
C         52.63866        48.52282         0.28807
C         51.41938        47.80459         0.47533
C         52.61935        49.97621         0.22663
C         51.38969        50.67823         0.16474
C         52.59150        52.79875        -0.10634
C         51.37056        52.07954         0.05166
C         52.57895        54.20552        -0.39725
C         51.33377        54.91307        -0.42019
C         52.49250        57.03395        -1.26880
C         51.28099        56.33040        -0.69542
C         52.51720        58.51482        -0.90404
C         51.31841        59.19992        -0.92885
C         52.48685        61.34473        -0.65698
C         51.28076        60.64233        -0.81872
C         53.85839        46.41319         0.21245
C         55.14695        48.57192        -0.07307
C         53.85650        47.80571         0.17134
C         55.09262        49.95244         0.61323
C         53.82946        50.69826         0.25375
C         55.06011        52.82213        -0.07510
C         53.82728        52.09841         0.02633
C         55.04519        54.18130        -0.43000
C         53.81792        54.86556        -0.63628
C         55.05176        57.10054        -0.75525
C         53.81002        56.30128        -1.03126
C         54.97572        58.55743        -0.51998
C         53.75680        59.22348        -0.66061
C         54.91988        61.37986        -0.32788
C         53.71963        60.66955        -0.53749
C         56.33404        50.77541         0.42895
C         57.53458        52.90933         0.28561
C         56.31538        52.12225         0.18541
C         57.55232        54.24678         0.03143
C         56.36737        54.90414        -0.64028
C         57.43476        57.13670         0.20906
C         56.21960        56.35498        -0.19521
C         57.39008        58.59922         0.03589
C         56.19945        59.26608        -0.21880
C         57.32721        61.45094         0.13973
C         56.15697        60.72719        -0.16472
C         58.74178        55.05342         0.25275
C         60.01340        57.19361         0.52246
C         58.72846        56.41329         0.29967
C         59.74039        58.64602         0.94790
C         58.70828        59.33451         0.03307
C         59.72585        61.51178         0.67691
C         58.57410        60.81512         0.33516
C         61.00863        59.46770         1.03137
C         60.95913        60.82198         0.93411
O         41.45276        47.18383         1.52263
O         48.49887        39.50475         1.97903
O         39.08403        52.32830         2.29679
O         47.22882        52.47858         2.23273
O         40.95653        44.03541        -1.60553
O         54.74035        56.65806        -2.13760
O         56.43088        56.62095         1.20785
O         38.63265        48.26693        -1.79200
O         47.25602        55.03758         1.93430
O         50.21235        44.76664         2.08958
O         36.62700        43.72030        -0.94562
H         36.89908        43.83433        -1.87930
O         55.02307        49.64060         2.04723
H         55.00860        50.48983         2.53706
O         37.55345        57.26640         2.22031
H         38.28461        57.81860         2.57185
O         46.02132        38.90026         2.30799
H         46.89100        38.80325         2.76380
O         59.19230        58.57242         2.28523
H         59.03497        59.48745         2.59928
O         31.50530        60.83341         2.37957
H         30.75270        60.27176         2.66295
O         47.64299        48.55136         2.54871
H         48.31508        49.18572         2.87757
O         42.43705        56.72949        -1.59942
H         41.79246        57.38725        -1.96812
O         36.51914        59.17591        -1.57865
H         37.34950        59.57905        -1.91221
O         39.15859        60.98089         1.93807
H         40.07272        60.70962         2.17189
O         56.69023        54.87890        -2.05439
H         55.97494        55.37126        -2.52575
O         46.66346        59.65023         1.60352
H         47.48285        60.18632         1.67256
O         49.87069        49.77413        -1.41833
H         50.69387        49.40826        -1.80719
O         56.26843        47.84871         0.42352
H         56.23268        47.92018         1.40217
O         49.86693        58.32053        -2.64421
H         50.70262        57.89158        -2.97082
O         41.32946        50.71960         2.37345
H         40.53194        51.30030         2.57439
O         59.21870        59.24480        -1.34092
H         58.63193        59.78478        -1.91172
O         42.75021        48.88968        -1.48848
H         43.67876        49.10390        -1.75593
O         52.26723        56.99608        -2.72113
H         53.15361        57.11718        -3.13741
O         41.14197        59.06712        -1.86316
H         41.75519        59.66967        -2.33857
O         45.51724        48.68565        -1.35861
H         45.66917        47.77514        -1.69377
O         41.88288        56.71645         2.01944
H         41.33445        56.12906         2.58119
O         46.23477        43.55836         2.51490
H         46.28221        44.49045         2.81897
O         36.69112        55.13492        -1.63201
H         35.92985        55.64315        -1.98566
O         60.82994        57.15387        -0.65191
H         60.42406        57.75718        -1.31586
O         38.31134        50.04597         1.79652
H         38.48126        50.73059         2.50757
O         43.82940        59.63090         1.78288
H         44.76300        59.76213         2.07837
O         48.90992        43.70893        -1.15065
H         48.14880        43.20883        -1.51420
O         38.32199        50.81744        -1.76344
H         38.71635        50.07542        -2.28309
O         48.47200        55.98667        -1.99025
H         48.75713        56.78072        -2.51386
H         29.38075        56.65224         0.14383
H         28.19436        58.81634         0.05422
H         30.34697        62.55317         0.33367
H         28.27014        61.29652        -0.13171
H         31.84885        52.34532        -0.01023
H         30.60331        54.49385         0.13216
H         32.81641        62.56283         0.44245
H         34.38878        48.12025        -0.36612
H         33.13600        50.20315        -0.17934
H         35.23387        62.60085         0.19532
H         37.28368        44.15967         0.94733
H         35.60734        45.99386        -0.53802
H         37.69726        62.61704         0.25293
H         39.31133        39.50048        -0.38858
H         38.06604        41.61147        -0.28304
H         40.29864        62.57522        -0.05412
H         41.76382        35.26438        -0.66583
H         40.54374        37.37326        -0.46458
H         42.69511        62.46617        -0.79345
H         45.15843        31.92152        -1.20615
H         42.99989        33.15066        -1.02711
H         45.10793        62.34927        -1.10717
H         47.32112        33.10252        -0.85950
H         48.57032        35.19445        -0.37185
H         47.56418        62.40340        -1.14024
H         49.79362        37.25864        -0.08276
H         51.01961        39.48073        -0.16336
H         50.04468        62.42686        -0.92111
H         52.27101        41.53913        -0.03587
H         53.57959        43.71931         0.10775
H         52.46768        62.44253        -0.58989
H         54.81003        45.87845         0.07737
H         55.28843        48.70562        -1.17916
H         54.88425        62.47780        -0.26600
H         57.29269        50.27848         0.64339
H         58.43479        52.41144         0.67799
H         57.25559        62.53907         0.28962
H         59.69179        54.52084         0.41675
H         60.59640        56.69433         1.33971
H         59.69675        62.60807         0.76104
H         61.94609        58.95992         1.30093
H         61.86900        61.42080         1.08786
