         200
 CSIRO Nanostructure Databank - Neutral Graphene Oxide Data Set
C        -11.02175         0.61812        -0.65340
C         -9.80133         1.37623        -0.51887
C         -8.57342         0.66356        -0.29136
C         -7.35202         1.38615        -0.14797
C         -6.12997         0.68848         0.09323
C         -4.90779         1.41837         0.25032
C         -3.68767         0.72826         0.51208
C         -2.47916         1.46242         0.72173
C         -1.23253         0.75026         0.91188
C         -0.00324         1.45410         0.94930
C          1.23397         0.76468         0.88565
C          2.48220         1.49517         0.79173
C          3.71710         0.81918         0.61483
C          4.94036         1.54556         0.32860
C          6.13569         0.83523         0.04323
C          7.31646         1.58850        -0.50250
C          8.61750         0.84316        -0.45738
C          9.85240         1.62642        -0.83398
C         11.11503         0.82662        -0.63287
C         -9.79208         2.76776        -0.61151
C         -8.58326         3.50859        -0.49148
C         -7.35577         2.80795        -0.25224
C         -6.13739         3.53327        -0.12880
C         -4.91280         2.83747         0.12847
C         -3.69765         3.56552         0.28095
C         -2.50861         2.87774         0.62233
C         -1.30686         3.66931         0.93249
C          0.00601         2.91796         1.09685
C          1.26511         3.65602         0.90099
C          2.45529         2.93164         0.82771
C          3.74530         3.63767         0.85404
C          4.95977         2.95615         0.39600
C          6.18538         3.69942         0.23081
C          7.39986         3.01723        -0.03056
C          8.61586         3.72426        -0.04439
C          9.92740         2.96498        -0.06332
C         -8.56426         4.91832        -0.60922
C         -7.36653         5.64283        -0.51264
C         -6.13635         4.94861        -0.26643
C         -4.90881         5.67298        -0.17957
C         -3.69270         4.99724         0.10621
C         -2.47692         5.74138         0.19058
C         -1.25526         5.09734         0.55430
C         -0.04392         5.80107         0.59302
C          1.22356         5.10226         0.79973
C          2.41042         5.82439         0.74441
C          3.71035         5.15443         0.85963
C          4.90755         5.83167         0.27971
C          6.19562         5.11741         0.27771
C          7.39523         5.85034         0.12300
C          8.61077         5.12509         0.05146
C         -7.34460         7.07362        -0.63736
C         -6.16063         7.77961        -0.60877
C         -4.90358         7.08518        -0.42071
C         -3.69291         7.79111        -0.45067
C         -2.47650         7.14072        -0.10705
C         -1.25892         7.88214        -0.01136
C         -0.04591         7.22587         0.32713
C          1.15032         7.98782         0.41494
C          2.40403         7.29836         0.71868
C          3.69165         8.07072         0.54636
C          4.90964         7.31283         0.13030
C          6.20052         8.02891         0.05923
C          7.36976         7.30229         0.04949
C         -6.13208         9.23567        -0.67879
C         -4.97559         9.91765        -0.79008
C         -3.66628         9.20134        -0.98551
C         -2.45906         9.97108        -0.54590
C         -1.27177         9.31941        -0.21402
C         -0.04790        10.04414        -0.10019
C          1.16546         9.39190         0.15707
C          2.41957        10.11745         0.06020
C          3.64062         9.49257         0.14406
C          4.91892        10.14077        -0.07160
C          6.11391         9.47064        -0.04736
C        -11.02235        -0.74389        -0.58447
C         -9.80244        -1.48623        -0.37595
C         -8.57251        -0.75334        -0.22147
C         -7.35207        -1.45719        -0.00991
C         -6.12575        -0.73400         0.16485
C         -4.90572        -1.43458         0.39399
C         -3.68086        -0.70265         0.57973
C         -2.46702        -1.38330         0.84778
C         -1.23152        -0.68371         0.95187
C          0.02786        -1.38968         1.00859
C          1.23728        -0.65115         0.94959
C          2.53728        -1.33630         1.00499
C          3.77387        -0.60917         0.66110
C          4.96659        -1.31061         0.42926
C          6.18450        -0.57824         0.12575
C          7.40519        -1.25561        -0.09084
C          8.61942        -0.53406        -0.35001
C          9.87749        -1.28726        -0.49540
C         11.11456        -0.51128        -0.48867
C         -9.79576        -2.87836        -0.32842
C         -8.58486        -3.60771        -0.14499
C         -7.35432        -2.87959         0.01552
C         -6.13331        -3.58608         0.18639
C         -4.91063        -2.86473         0.38818
C         -3.70930        -3.58618         0.60143
C         -2.51014        -2.84326         1.00217
C         -1.17462        -3.61051         0.99768
C          0.06402        -2.82661         0.89171
C          1.24370        -3.51677         0.60476
C          2.53661        -2.84967         0.78859
C          3.76244        -3.47791         0.29491
C          4.97627        -2.75535         0.28258
C          6.17488        -3.44981        -0.03676
C          7.50431        -2.74975         0.09078
C          8.53772        -3.33989        -0.87320
C          9.85974        -2.63449        -0.68925
C         -8.56634        -5.01528        -0.12242
C         -7.35781        -5.73504         0.02480
C         -6.12489        -5.00903         0.17528
C         -4.89526        -5.71472         0.27621
C         -3.66991        -4.99572         0.47642
C         -2.41994        -5.70387         0.41930
C         -1.19661        -5.00395         0.53955
C          0.01552        -5.63101         0.16156
C          1.23665        -4.88778         0.19003
C          2.45346        -5.51062        -0.19930
C          3.71466        -4.82607        -0.12596
C          4.92308        -5.51502        -0.42208
C          6.15762        -4.81580        -0.34690
C          7.40148        -5.54402        -0.62392
C          8.57400        -4.84849        -0.78391
C         -7.32597        -7.15417         0.02224
C         -6.11603        -7.85592         0.10389
C         -4.88001        -7.13430         0.19947
C         -3.63932        -7.83701         0.18015
C         -2.40402        -7.12125         0.17308
C         -1.17913        -7.81415        -0.05556
C          0.01305        -7.01103        -0.23806
C          1.18590        -7.51231        -0.82482
C          2.42008        -6.81415        -0.76511
C          3.65057        -7.45522        -1.10266
C          4.88911        -6.90328        -0.79043
C          6.12967        -7.67691        -0.76135
C          7.32862        -6.98916        -0.68953
C         -6.06789        -9.29471         0.08169
C         -4.87661        -9.96659         0.11443
C         -3.62381        -9.26131         0.13684
C         -2.38527        -9.93273         0.15121
C         -1.16219        -9.25194         0.01889
C          0.06824       -10.03621         0.15271
C          1.24424        -9.73323        -0.48221
C          2.56804       -10.25441        -0.20329
C          3.70995        -9.69275        -0.73276
C          5.08739        -9.98630        -0.39603
C          6.13860        -9.12111        -0.55764
O          1.15263        -8.74066        -1.49211
O          3.96262         4.43479         2.09475
O          3.58161        -8.70597        -1.73100
O          4.62076         6.45095        -1.03539
O          8.05962        -3.02003        -2.22048
H          8.72027        -3.35829        -2.86030
O         -1.90903        -3.35507         2.23726
O          3.18774         7.83376         1.88913
O         -0.75882         3.39038         2.26598
O         10.29051         2.66402         1.29168
H         10.22590         3.48529         1.82037
O          9.75723         1.95318        -2.24979
H          8.79852         2.09777        -2.45045
O          7.02221         1.72688        -1.98018
H          6.84591         0.81996        -2.31529
O          2.68766        -2.25887         2.12895
O          7.99427        -2.99447         1.44176
H          7.34653        -2.61367         2.07121
O         -3.50747         9.07282        -2.46032
H         -2.66714         8.59060        -2.61575
H         12.06405        -1.06135        -0.39762
H         12.06779         1.37712        -0.65632
H         10.72839         3.60763        -0.53064
H          9.56378         5.67352        -0.00432
H          8.33335         7.82850        -0.03413
H          7.05000        10.03582        -0.17050
H          4.91798        11.22962        -0.23205
H          2.37137        11.18872        -0.18942
H         -0.05398        11.12850        -0.28538
H         -2.44467        11.05882        -0.71531
H         -4.97632        11.01707        -0.83633
H         -7.09168         9.77112        -0.61193
H         -8.29818         7.60711        -0.76840
H         -9.50737         5.45461        -0.79256
H        -10.73420         3.30747        -0.79034
H        -11.96157         1.16550        -0.81850
H        -11.96270        -1.30425        -0.69359
H        -10.73955        -3.43164        -0.44725
H         -9.51045        -5.56822        -0.23979
H         -8.27073        -7.71099        -0.06860
H         -7.01586        -9.85099         0.03736
H         -4.86102       -11.06640         0.09895
H         -2.37732       -11.03109         0.21740
H          0.02877       -10.90922         0.82230
H          2.66297       -11.03462         0.56554
H          5.31035       -10.99436        -0.01127
H          7.13922        -9.53222        -0.34118
H          8.27348        -7.55488        -0.66770
H          9.50730        -5.38339        -1.02256
H         10.80076        -3.18752        -0.83799
