         260
 CSIRO Nanostructure Databank - Neutral Graphene Oxide Data Set
C        -11.17920         0.64214        -0.19226
C         -9.95051         1.41516        -0.07607
C         -8.75065         0.73029         0.39525
C         -7.55475         1.38526         0.42299
C         -6.19246         0.76714         0.28374
C         -5.16550         1.33082         1.33445
C         -3.75678         0.67189         1.21145
C         -2.51890         1.41486         0.78290
C         -1.39975         0.75062         0.34607
C         -0.23151         1.45649        -0.26646
C          0.99619         0.76163        -0.79634
C          2.34663         1.46819        -0.75152
C          3.49829         0.83484        -1.57334
C          4.86961         1.59852        -1.47606
C          6.18455         0.83652        -1.37110
C          7.45807         1.61179        -0.98822
C          8.72625         0.86820        -0.67601
C          9.96040         1.59024        -0.10682
C         10.68917         0.74069         0.91228
C         -9.87892         2.71457        -0.52403
C         -8.66262         3.49417        -0.46252
C         -7.39017         2.78060        -0.08995
C         -6.37931         3.61332         0.70753
C         -5.15239         2.89540         1.20908
C         -3.81867         3.63015         1.24264
C         -2.51073         2.88796         1.03892
C         -1.15213         3.60515         0.87103
C         -0.16346         2.94693        -0.08840
C          1.13202         3.69271        -0.23031
C          2.41780         2.89790        -0.30916
C          3.79578         3.59786        -0.20979
C          4.90269         3.05553        -1.12654
C          6.20531         3.72901        -0.78734
C          7.37111         3.05019        -0.59128
C          8.53959         3.70369         0.04145
C          9.65329         2.99439         0.36599
C         -8.64426         4.82910        -0.74905
C         -7.49491         5.69577        -0.39526
C         -6.38173         5.10339         0.42164
C         -5.08524         5.85667         0.54470
C         -3.83280         5.13172         0.99584
C         -2.54898         5.77674         0.54077
C         -1.25688         5.06145         0.45583
C          0.02892         5.82183         0.40240
C          1.18462         5.14246         0.15443
C          2.39788         5.82519        -0.45738
C          3.70353         5.13967        -0.08532
C          4.97515         5.91905        -0.19698
C          6.12336         5.22466        -0.88470
C          7.49232         5.79666         1.04198
C          8.48591         5.16772         0.32316
C         -7.28481         6.99886        -1.03354
C         -6.08717         7.70934        -0.86865
C         -4.98227         7.13981        -0.18511
C         -3.68963         7.82064        -0.26105
C         -2.54647         7.27649         0.53367
C         -1.27261         8.04783         0.59858
C          0.03796         7.30052         0.63002
C          1.28527         8.07756         0.30559
C          2.45617         7.36842        -0.30897
C          3.79044         8.16594        -0.29453
C          5.00324         7.39572        -0.05259
C          6.08860         7.94626         0.68970
C          7.26755         7.25270         1.02445
C         -5.98807         9.09716        -1.31893
C         -4.86554         9.84848        -1.19533
C         -3.58330         9.22769        -0.81529
C         -2.37333        10.01701        -0.45647
C         -1.27192         9.46115         0.10075
C         -0.05204        10.29511         0.45365
C          1.26954         9.56879         0.22521
C          2.42677        10.26159         0.17753
C          3.80510         9.67970        -0.07646
C          4.86853        10.09574         0.90914
C          5.96072         9.34079         1.13505
C        -11.27663        -0.66812         0.11478
C        -10.17089        -1.48855         0.73822
C         -8.81512        -0.72109         0.72339
C         -7.54459        -1.48880         0.55121
C         -6.23235        -0.79112         0.12805
C         -5.10244        -1.51449         0.87972
C         -3.77596        -0.81456         1.03943
C         -2.53084        -1.55592         0.66262
C         -1.29401        -0.73346         0.41223
C         -0.07798        -1.44987        -0.08863
C          1.15661        -0.69415        -0.49695
C          2.41540        -1.41705        -0.84693
C          3.61704        -0.68712        -1.37416
C          4.89428        -1.44251        -1.15388
C          6.19240        -0.66286        -1.19833
C          7.38748        -1.37016        -0.61591
C          8.64494        -0.61119        -0.40264
C          9.96770        -1.35610        -0.23532
C         10.76478        -0.59230         0.80419
C        -10.01382        -2.84382         0.09731
C         -8.93452        -3.74238         0.61626
C         -7.61777        -2.98161         0.28626
C         -6.36344        -3.76863         0.35898
C         -5.12434        -3.00164         0.72934
C         -3.89957        -3.69829         0.24843
C         -2.57482        -2.99836         0.29568
C         -1.50890        -3.61515        -0.60051
C         -0.16970        -2.85197        -0.62121
C          1.10718        -3.58685        -0.90254
C          2.47093        -2.93936        -1.02397
C          3.52014        -3.49949        -0.08393
C          4.87054        -2.77812        -0.38431
C          6.15109        -3.54826        -0.25747
C          7.43851        -2.89282        -0.89296
C          8.66306        -3.55688        -0.18565
C          9.74185        -2.79588         0.17401
C         -8.89726        -5.16898        -0.03356
C         -7.63208        -5.96951         0.31188
C         -6.40448        -5.23058         0.82664
C         -5.11957        -5.97533         0.48492
C         -3.92259        -5.18050         0.12050
C         -2.58371        -5.84597         0.14091
C         -1.34391        -5.08610        -0.20631
C         -0.15175        -5.83482        -0.72800
C          1.13546        -5.09422        -0.98434
C          2.39388        -5.83971        -0.70623
C          3.55065        -5.05590        -0.15805
C          4.87500        -5.77963        -0.02891
C          6.14603        -5.01357        -0.05515
C          7.37294        -5.67800         0.02162
C          8.59308        -4.96406         0.00332
C         -7.57697        -7.31821         0.26052
C         -6.35499        -8.09068         0.77055
C         -5.08936        -7.32832         0.43321
C         -3.84378        -8.08259         0.09792
C         -2.57105        -7.33056        -0.02008
C         -1.20046        -7.84528         0.37013
C         -0.10648        -7.34225        -0.55636
C          1.17651        -8.07248        -0.86334
C          2.43005        -7.23343        -0.74606
C          3.68254        -7.93070        -0.44275
C          4.86681        -7.24267        -0.23678
C          6.12176        -7.94627         0.11107
C          7.38852        -7.15118         0.24555
C         -6.25030        -9.52375         0.28972
C         -5.09378       -10.19444         0.16198
C         -3.73097        -9.57616         0.42508
C         -2.61683       -10.20473        -0.45073
C         -1.29548       -10.08584        -0.31601
C          0.00406       -10.31700        -0.13929
C          1.22800        -9.62133        -0.77380
C          2.53915       -10.12920        -0.24894
C          3.68570        -9.39510        -0.29802
C          4.96949       -10.07756        -0.15028
C          6.13706        -9.41258        -0.04467
O         -2.03194        -3.55156        -1.93029
H         -1.30284        -3.79260        -2.54908
O          3.11812        -3.17049         1.23996
H          3.85072        -3.41606         1.84734
O          7.74255        -0.91645         0.72379
O          4.38738         3.15928         1.04677
H          3.74843         3.31621         1.77489
O         -0.49082         3.54136         2.15118
H         -1.17951         3.58831         2.85429
O         -3.26833         8.06901        -1.65990
O          0.34051        -2.94197        -1.98896
O          2.50960         1.78063         0.65402
O         -5.99758        -1.10038        -1.25219
H         -6.02242        -0.26771        -1.77999
O         -6.17725         3.39794         2.11921
O          8.47824         1.34494        -2.02443
O          0.26195        -5.50266        -2.07886
O          4.80607         2.66830        -2.49914
O         -9.04042        -5.05606        -1.44637
H         -8.21839        -4.64150        -1.79839
O         -6.96930        -3.43941        -0.92671
O         -0.25681        -1.22332         1.33322
O          0.98506         7.66367         1.69279
O          4.39781         5.51605         1.12374
O         -0.96915        -8.17693         1.52719
O         -4.17442        -4.32658        -1.04080
O          4.25980        -1.38833        -2.46400
O          6.42989        -0.05711        -2.49381
O         -8.97980        -3.91753         2.03896
H         -9.44872        -3.13157         2.42486
O         -5.31562        -2.38250         2.03446
O         -3.02629         3.20903         2.38705
O         -7.99150        -1.09994         1.87427
O          0.16755         3.57939        -1.33795
O          3.00393         7.93354        -1.50974
O          6.68888         5.09564         1.87899
H          6.81755         4.13282         1.75659
O         -3.55704        -0.20480         2.36019
O          4.00793        -5.51215         1.15219
O         -2.21938        -2.62691         1.63371
O          2.18415        -0.95731         0.51270
O          2.21084         5.56159        -1.81827
O          7.51241        -3.13685        -2.21732
O          5.66927        -2.70910         0.83617
O         -2.09756         5.22903        -0.74183
O         -0.06142        11.54524        -0.22686
H          0.11974        11.38790        -1.17598
O         -2.15454         7.90192         1.78055
O         -7.45470         5.79438         1.12256
O          6.67552        -7.53946         1.44090
O         -1.66561        -5.37805         1.18179
O         -5.73072         1.36622        -1.00411
O          3.02557         0.98530        -2.92066
H          3.71216         0.63012        -3.52604
O         -6.48411        -8.12679         2.21585
H         -6.47718        -7.19068         2.53295
O          0.13453        -7.86090        -1.88932
O         -3.24365        -7.77753        -1.22294
O         10.68391        -1.37123        -1.48833
H         10.10154        -1.76676        -2.17199
O         -6.67153         2.47221        -1.36861
O         10.89412         1.77480        -1.20188
H         10.35230         1.92422        -2.01138
O         -0.06284         1.08651        -1.70499
O          6.74538         5.83362        -1.74472
O         -4.57818         5.91840         1.94403
O         -5.70728         1.00856         2.60339
H         -5.03871         0.48758         3.11073
O        -10.51804        -1.68432         2.13982
H        -10.28834        -0.86933         2.63416
O         -6.50001        -5.21169         2.27684
H         -7.35139        -4.76014         2.51250
O         -3.40936        -9.73459         1.81030
H         -2.53222        -9.31820         1.98344
O          4.23701        10.25208        -1.34564
H          3.77229         9.75274        -2.05480
O          1.24792       -10.09596        -2.15024
H          0.55981        -9.58658        -2.63708
O          2.89147        -3.34601        -2.33352
H          2.21028        -3.06733        -2.98343
H         11.37021        -1.17001         1.52050
H         11.26789         1.26234         1.69029
H         10.48402         3.52182         0.86023
H          9.14504         5.79787        -0.29405
H          8.13060         7.87980         1.30970
H          6.76306         9.72760         1.78160
H          4.80826        11.11048         1.32917
H          2.37415        11.36251         0.19367
H         -0.12527        10.52363         1.55315
H         -2.35667        11.08823        -0.71406
H         -4.88819        10.92368        -1.42598
H         -6.91616         9.56746        -1.67634
H         -8.10764         7.44330        -1.61180
H         -9.57487         5.32732        -1.06348
H        -10.78700         3.20669        -0.90317
H        -12.05805         1.16732        -0.59667
H        -12.24349        -1.17688        -0.01251
H        -10.21134        -2.91614        -0.98586
H         -9.78859        -5.73087         0.34262
H         -8.46673        -7.89481        -0.04045
H         -7.19684       -10.05351         0.09542
H         -5.11987       -11.25172        -0.14689
H         -2.97471       -10.75981        -1.33965
H          0.25912       -11.22354         0.44409
H          2.61578       -11.21654        -0.09106
H          4.95922       -11.17713        -0.17578
H          7.09226        -9.94659         0.05730
H          8.36608        -7.66488         0.10688
H          9.53234        -5.53920         0.04525
H         10.50729        -3.25324         0.82529
