         320
 CSIRO Nanostructure Databank - Neutral Graphene Oxide Data Set
C         31.08132        31.43300         1.88397
C         31.16555        32.69573         1.93141
C         31.37635        35.77873         2.41554
C         31.18557        36.98146         2.66508
C         30.68681        40.20083         2.04612
C         30.61275        41.42801         2.17545
C         32.83194        28.68194         0.08478
C         32.00479        29.23962         0.83048
C         32.93911        31.42504         0.40269
C         31.91254        30.65845         1.05887
C         32.94926        32.84518         0.44267
C         32.02547        33.56341         1.25800
C         33.43677        35.60443         1.03790
C         31.90055        35.05847         1.21537
C         33.65152        37.09238         1.22236
C         32.02966        38.12523         2.47271
C         32.87112        40.11367         1.08704
C         31.81605        39.33419         1.88343
C         32.96368        41.58812         1.35929
C         31.57000        42.43679         1.65836
C         33.15265        44.08630         2.32769
C         32.05413        43.53775         2.58255
C         35.56517        27.11905        -0.97483
C         35.07463        28.52321        -1.23470
C         34.23753        29.16381        -0.13121
C         35.27187        31.49784        -0.60091
C         33.95627        30.71032        -0.50111
C         35.22434        32.86095        -0.62943
C         33.86346        33.57266        -0.54991
C         35.20531        35.84298        -0.65396
C         33.90554        35.15886        -0.40236
C         35.14879        37.35634        -0.72570
C         34.16408        37.92989         0.29240
C         35.24885        40.24422        -0.00663
C         34.01436        39.42968         0.35482
C         35.25172        41.77516         0.23768
C         34.14949        42.28388         1.17735
C         35.46446        44.46245         1.32077
C         34.29462        43.65619         1.61265
C         35.81359        45.71670         2.00539
C         37.89578        27.04593        -1.82925
C         36.53034        26.54454        -1.47955
C         37.75598        28.61027        -1.67487
C         36.44074        29.30595        -1.41344
C         37.71611        31.49701        -1.37849
C         36.57981        30.67709        -0.71525
C         37.73429        32.92083        -0.79035
C         36.42240        33.68580        -1.11499
C         37.66952        35.89828        -1.15703
C         36.49987        35.12523        -0.52841
C         37.64707        37.44175        -1.15693
C         36.51976        37.97368        -0.25472
C         37.89196        40.12820         0.03871
C         36.52759        39.50025        -0.28481
C         37.85792        41.65337        -0.18403
C         36.65193        42.24965         0.75277
C         38.12421        44.31815         1.19833
C         36.74797        43.76149         0.83929
C         38.17246        45.91994         1.27797
C         36.93276        46.22762         2.07094
C         39.76313        24.81903         0.73562
C         38.94798        25.48908        -0.05400
C         40.41514        27.06960        -1.01825
C         38.93690        26.51389        -0.89596
C         40.35988        28.59199        -1.27139
C         39.08646        29.35112        -1.52675
C         40.22642        31.48560        -0.88660
C         39.08027        30.81718        -1.20299
C         40.22873        32.97838        -0.53853
C         39.04418        33.62831        -1.26680
C         40.23021        35.92552        -1.16507
C         38.97318        35.15987        -1.26113
C         40.20677        37.30484        -1.12604
C         39.00381        38.08648        -0.91565
C         40.36705        40.13414        -0.55100
C         39.08844        39.42866        -0.59430
C         40.44713        41.50279         0.16041
C         39.17710        42.31266         0.08147
C         40.54935        44.43172         0.36443
C         39.16366        43.81833         0.11891
C         40.73745        45.75955         1.05787
C         39.49127        46.41112         1.85566
C         40.72183        48.50900         1.39407
C         39.70273        47.87957         1.68791
C         42.18662        24.97496         1.59439
C         41.00156        25.36232         0.91136
C         42.71605        27.22940         0.08578
C         41.23768        26.79651         0.26981
C         42.85584        28.65215        -0.42804
C         41.64830        29.34717        -0.98328
C         42.70096        31.57637        -0.25410
C         41.61167        30.87475        -1.11284
C         42.71491        33.06046        -0.56972
C         41.53978        33.70027        -0.79924
C         42.77454        35.76938        -1.39239
C         41.50399        35.22088        -0.71881
C         42.73010        37.29194        -1.60107
C         41.46450        38.05815        -1.36214
C         42.76091        40.22651        -1.30314
C         41.50188        39.49686        -0.99741
C         42.89353        41.65496        -0.87385
C         41.71305        42.32089        -0.24524
C         42.98583        44.49224        -0.45093
C         41.62044        43.83403        -0.54483
C         43.17590        45.87724         0.16717
C         41.91174        46.59711         0.64660
C         43.10162        48.62050         0.28014
C         41.92747        47.97899         0.80715
C         43.27025        25.55429         1.79266
C         44.90018        27.50234         1.52096
C         43.81882        26.62981         0.93851
C         45.18089        28.82618         0.74827
C         44.11035        29.44320        -0.09648
C         45.22501        31.72613         0.31481
C         44.12071        30.95449        -0.42437
C         45.23702        33.18441         0.13605
C         43.89251        33.86145        -0.05493
C         45.03760        36.04159        -0.29270
C         43.97358        35.26824        -0.60199
C         44.86734        37.55364        -0.36996
C         44.09526        37.97255        -1.62951
C         45.33139        40.23901        -1.87109
C         43.99576        39.50409        -1.72650
C         45.30932        41.74758        -1.59767
C         43.98014        42.48556        -1.57169
C         45.37683        44.57569        -1.09803
C         44.08502        43.87419        -0.97686
C         45.34479        45.99180        -1.04346
C         44.03805        46.70094        -0.85978
C         44.07618        48.08580        -0.26665
C         47.35367        27.57106         1.83169
C         46.30130        26.95231         1.66485
C         47.51800        29.03882         1.86776
C         46.29767        29.70679         1.27763
C         47.65707        31.90737         0.83584
C         46.34072        31.11827         0.82459
C         47.38838        33.35470         1.44996
C         46.27422        33.96735         0.57904
C         47.25890        36.32460         0.90567
C         46.36911        35.40467         0.08578
C         47.27749        37.77577         0.57796
C         46.13984        38.37486        -0.19725
C         47.79619        40.17856        -0.99263
C         46.36031        39.65987        -0.91651
C         47.80771        41.61848        -1.64894
C         46.51148        42.39466        -1.43768
C         47.85303        44.52299        -1.49088
C         46.58881        43.85004        -1.32352
C         47.68022        45.92031        -1.46733
C         46.60610        46.55369        -1.29086
C         50.12822        29.09391         1.69141
C         48.81767        29.76722         2.10637
C         50.11763        31.61302         1.11167
C         48.85853        31.13561         1.38493
C         49.72719        33.90840         2.38849
C         48.60828        34.26813         1.59903
C         49.76430        36.40772         0.70346
C         48.57096        35.77479         1.46736
C         49.72220        37.92016         1.03071
C         48.54725        38.56032         0.75987
C         49.84697        40.73445         0.43865
C         48.48761        40.05593         0.43058
C         49.77387        42.04316         0.06229
C         49.12808        42.34264        -1.30125
C         50.39031        44.29042        -1.52353
C         49.11085        43.83610        -1.60405
C         51.23079        29.64015         1.49992
C         52.39532        32.21658         1.72782
C         51.38442        31.10385         1.89897
C         51.99007        33.37732         2.00420
C         51.02596        34.41763         2.01803
C         52.09445        36.60028         1.39920
C         51.17112        35.51585         0.96875
C         52.07828        37.80500         1.61327
C         50.95402        38.78299         1.51780
C         52.25981        40.85201         0.42987
C         51.12392        39.88048         0.47457
C         52.53094        41.93664        -0.10553
C         51.78394        43.14623        -0.34195
C         51.70248        44.02944        -1.45297
O         39.97468        28.95955        -2.63999
O         42.65935        28.76858        -1.87577
O         41.05880        44.48753         1.73411
O         41.94126        37.68836        -2.75530
O         45.25731        28.73626        -0.68826
O         35.94930        44.52990        -0.07672
O         46.62778        37.23686         1.84394
O         32.80529        39.85459        -0.36514
O         36.94297        29.16222        -2.76704
O         43.46524        42.63337        -2.97200
O         42.86358        41.91373         0.56160
O         46.47859        29.59470         2.74737
O         33.37358        37.66213         2.48654
O         43.09139        40.02457        -2.74289
O         38.14854        35.49805        -2.46495
O         50.67139        43.04775         0.51395
O         45.76767        39.66904         0.41694
O         33.29512        33.33018        -1.91442
O         43.72579        26.33425        -0.46093
O         35.74333        40.02356        -1.38229
O         34.91725        42.39670        -1.00240
H         35.47029        41.96665        -1.69891
O         49.54268        36.34030        -0.70766
H         49.73256        37.21773        -1.10993
O         47.90944        41.44296        -3.08744
H         47.04675        41.07483        -3.41886
O         33.38706        30.65538        -1.81252
H         33.16848        31.57664        -2.09547
O         34.77983        37.69382        -2.06971
H         34.95517        38.66122        -2.20025
O         41.91405        31.16986        -2.49723
H         41.37079        30.55608        -3.04506
O         47.91120        32.17266        -0.58315
H         47.77755        31.34167        -1.08811
O         48.73247        36.27814         2.82470
H         47.90487        36.76742         3.05462
O         44.43304        27.85071         2.81329
H         45.12724        28.40880         3.24548
O         38.11599        39.84623         1.45067
H         38.98483        40.24818         1.71143
O         45.71592        40.01167        -3.25182
H         44.90093        40.14930        -3.78636
O         40.63185        41.12618         1.57331
H         41.60515        41.04961         1.72444
O         50.14150        41.70560        -2.13687
H         49.89901        41.88859        -3.07286
O         31.11172        42.96806         0.46281
H         31.80678        43.52247         0.05270
O         37.43888        31.55155        -2.78832
H         38.25502        31.89351        -3.22653
O         38.66619        44.32535        -1.15418
H         39.41593        44.28719        -1.79879
O         47.08374        35.29932        -1.18488
H         46.59744        34.67289        -1.76276
O         42.32547        31.43841         1.14469
H         42.83397        32.12995         1.63891
O         42.88994        35.17739        -2.70203
H         42.30115        35.68995        -3.30081
O         38.28497        26.77714        -3.16321
H         37.73648        27.33701        -3.75444
O         49.57063        32.98722         3.35529
H         50.43227        32.57835         3.63745
O         39.58788        46.04283         3.21149
H         40.36861        46.47681         3.61200
O         41.18209        43.95795        -1.92229
H         41.91660        43.65150        -2.51385
O         36.73034        41.75244         2.08580
H         37.46852        42.21995         2.54964
O         51.11371        39.23117        -0.80545
H         50.99020        39.92823        -1.49541
O         34.38859        28.52404        -2.45437
H         35.04465        28.40188        -3.17414
O         44.81791        37.47891        -2.76472
H         44.21858        37.52774        -3.53976
O         34.92970        29.01552         1.08229
H         34.36475        29.31212         1.82424
O         36.22090        33.85179        -2.52344
H         36.31425        32.95899        -2.94240
O         48.90607        29.94864         3.53187
H         48.52031        29.16315         3.97448
O         43.34300        46.74670        -2.09902
H         43.91819        47.16700        -2.77112
O         37.77008        32.73442         0.63198
H         37.68684        33.61740         1.07605
O         44.51684        31.10830        -1.79705
H         43.79165        30.74863        -2.36590
O         43.49326        33.99451         1.37971
H         44.15856        34.55877         1.83268
O         40.12146        33.14326         0.90363
H         40.76570        32.50309         1.30011
O         41.01581        26.43094        -2.11607
H         40.54926        26.71963        -2.93184
O         31.05467        35.41866         0.14771
H         31.13910        34.74232        -0.56623
O         31.84860        33.52231        -1.86295
H         31.72628        34.26572        -2.50602
O         51.25696        31.08093         3.31064
H         50.58593        30.40297         3.58782
O         32.98148        35.72537        -1.35267
H         33.45007        36.42172        -1.87787
O         40.71398        27.73900         1.23829
H         40.97377        27.44603         2.13837
O         44.41797        43.50933        -3.65793
H         44.18639        43.34983        -4.60518
O         37.47420        41.91627        -1.55161
H         37.68593        42.86972        -1.72231
O         47.77534        40.81407         1.41359
H         46.91017        40.37713         1.59512
O         38.47878        43.75220         2.45797
H         39.41113        44.00566         2.67373
O         48.53276        39.29749        -1.85409
H         48.57623        39.74134        -2.73740
O         43.99782        37.89318         0.73797
H         44.53595        37.83213         1.55965
O         34.24058        34.90804         2.00848
H         34.14110        35.37834         2.86573
O         38.03400        46.48023        -0.00083
H         37.20390        46.13141        -0.40289
O         51.55282        34.92649        -0.24386
H         51.06573        35.38380        -0.97090
O         37.01294        30.30028         0.60442
H         37.27151        31.12618         1.08293
O         44.00988        45.70259         1.33216
H         43.52991        45.12454         1.96279
O         39.30764        33.29736        -2.65600
H         38.80706        33.95126        -3.20068
O         41.57697        35.56812         0.69264
H         41.02841        34.90672         1.17936
O         46.79291        33.17211         2.75406
H         47.51481        32.91264         3.37111
O         50.37370        32.49462         0.14579
H         49.54403        32.66294        -0.37662
O         37.30955        37.87386        -2.49195
H         37.70696        37.22618        -3.11826
O         36.80360        35.06096         0.90627
H         35.94463        35.05109         1.40947
O         50.64543        39.37458         2.75802
H         50.55041        38.67194         3.43299
O         36.71675        37.56574         1.10578
H         37.32453        38.21822         1.53779
