         671
 CSIRO Nanostructure Databank - Neutral Graphene Oxide Data Set
C          6.35120        31.71485        -1.82530
C          6.35240        33.07406        -1.94287
C          8.69160        27.44842        -1.20714
C          8.70976        28.83338        -1.12245
C          7.52627        29.61517        -1.40896
C          8.89997        31.62772        -1.86464
C          7.56124        30.97117        -1.59430
C          8.93470        33.20094        -1.74663
C          7.54551        33.84962        -1.73852
C          8.62724        35.97008        -1.12443
C          7.46645        35.20190        -1.53061
C          8.46216        37.47608        -1.04965
C         11.06970        23.14234        -0.56108
C         10.97473        24.53692        -0.39901
C          9.87474        25.28954        -0.89199
C         10.82002        27.38160         0.00661
C          9.81156        26.68807        -0.76067
C         10.93543        28.83221        -0.03605
C          9.91866        29.51758        -0.72856
C         11.18141        31.71187        -0.48217
C         10.05854        30.93429        -1.12680
C         11.08103        33.17210        -0.30954
C          9.71710        33.78808        -0.55877
C         10.86624        36.03794        -0.10500
C          9.75293        35.30108        -0.73100
C         10.95343        37.50029        -0.38947
C          9.66521        38.23629        -0.51634
C         10.83825        40.35862        -0.01836
C          9.66653        39.59199        -0.43074
C         10.84215        41.71474        -0.02344
C         13.33831        18.86461         0.10964
C         13.32593        20.28006         0.27542
C         12.20913        21.02431        -0.12604
C         13.28020        23.15642         0.55872
C         12.16896        22.43973        -0.03476
C         13.19107        24.55043         0.79643
C         11.98021        25.20076         0.39919
C         13.41643        27.58893         1.34061
C         11.67052        26.54221         0.74362
C         13.33172        28.92697         0.89407
C         12.11566        29.57377         0.43880
C         13.32518        31.73196         0.73974
C         12.18107        30.97165         0.30464
C         13.27185        33.13789         0.80311
C         12.09359        33.84118         0.35317
C         13.23888        36.09772         0.94513
C         11.99892        35.31914         0.55579
C         13.49841        37.44042         0.25459
C         12.20868        38.22988        -0.05352
C         13.30337        40.38623         0.59120
C         12.01473        39.60469         0.57928
C         13.27187        41.75288         0.56140
C         11.95327        42.48398         0.65788
C         13.21419        44.62376         0.12630
C         12.02925        43.93842         0.27766
C         13.23918        46.07339         0.00216
C         15.72260        14.54085         0.33287
C         15.70854        15.91482         0.29977
C         14.50335        16.68812         0.18332
C         15.68161        18.77492         0.88664
C         14.47598        18.08177         0.36402
C         15.72730        20.25284         0.92316
C         14.49735        20.99650         0.74929
C         15.67179        23.12966         1.25463
C         14.45140        22.39075         0.90026
C         15.70517        24.58329         1.06508
C         14.40406        25.26937         1.45649
C         15.78331        27.44564         1.01883
C         14.53902        26.77747         1.22715
C         15.78995        28.87726         0.93260
C         14.57362        29.61077         0.86469
C         15.79384        31.71196         1.08755
C         14.57730        31.03511         0.91958
C         15.74565        33.12258         1.49056
C         14.41643        33.85494         1.40908
C         15.77757        36.05145         1.33170
C         14.45712        35.35710         1.40525
C         15.73093        37.55586         1.59862
C         14.55294        38.27878         0.95143
C         15.70414        40.46590         1.40985
C         14.52457        39.64374         0.89970
C         15.70125        41.86986         0.83249
C         14.51487        42.51202         0.55591
C         15.68704        44.60948        -0.00508
C         14.48362        43.91963         0.21841
C         15.62586        45.98760        -0.61419
C         14.40549        46.78409        -0.21639
C         15.64129        48.95443        -0.33586
C         14.45421        48.21891        -0.24164
C         15.69065        50.37772        -0.36027
C         18.24598        10.24052        -0.01447
C         18.19274        11.65780         0.05756
C         17.00654        12.32692         0.27900
C         18.24948        14.51320         0.46883
C         16.96023        13.76482         0.72130
C         18.25434        15.91554         0.53021
C         17.00608        16.68603         0.19000
C         18.25190        18.77627         0.86458
C         16.97935        18.02406         0.88907
C         18.21991        20.18864         0.90540
C         16.95502        20.89818         0.98752
C         18.16711        23.11666         0.74394
C         16.97025        22.36018         1.20381
C         18.24690        24.58923         0.90126
C         17.00700        25.29418         1.42042
C         18.23400        27.43022         0.83495
C         17.02019        26.74760         1.02434
C         18.25123        28.86778         0.81273
C         17.02606        29.58508         0.90147
C         18.28639        31.69251         1.05115
C         17.03614        31.00932         0.99926
C         18.31129        33.16482         1.26685
C         17.02518        33.90231         1.48695
C         18.29002        36.09806         1.25525
C         16.95480        35.36999         1.25753
C         18.13354        37.44473         0.53734
C         17.05548        38.24677         1.25975
C         18.10734        40.37255         0.30485
C         17.03904        39.72869         1.16980
C         18.19742        41.85735         0.57249
C         16.97016        42.65822         0.94554
C         18.16694        44.62303        -0.08734
C         16.93205        43.99735         0.23597
C         18.17495        45.93295        -0.87457
C         16.93862        46.72475        -0.46028
C         18.11074        48.99995        -0.90180
C         16.93599        48.21064        -0.35797
C         18.18463        50.34203        -0.13181
C         16.89688        51.11348        -0.32865
C         18.18671        53.24984        -0.34479
C         16.96188        52.51736        -0.35972
C         18.22118        54.64029        -0.18185
C         20.78774         5.96378         0.63652
C         20.75198         7.47529         0.67082
C         19.47811         8.14330         0.22240
C         20.74264        10.27353         0.09604
C         19.47132         9.52201         0.06032
C         20.73566        11.66840         0.12779
C         19.47202        12.42349        -0.18764
C         20.69678        14.52353         0.48062
C         19.46792        13.82820         0.35189
C         20.68419        15.91552         0.72497
C         19.47143        16.62258         0.66922
C         20.70168        18.79492         0.70279
C         19.47290        18.08243         0.76081
C         20.68050        20.21489         0.67644
C         19.44886        20.88784         0.78516
C         20.70704        23.11551         0.69651
C         19.42191        22.34149         0.54325
C         20.60781        24.49946         0.04174
C         19.40349        25.25897         0.58113
C         20.68124        27.40499         0.47112
C         19.47355        26.71016         0.65569
C         20.71128        28.84723         0.56515
C         19.48117        29.57509         0.76810
C         20.80360        31.72955         1.06084
C         19.48901        30.99318         0.90521
C         20.73565        33.19014         0.64458
C         19.51888        33.90434         0.81650
C         20.67138        36.00897         0.41445
C         19.48158        35.30274         0.72712
C         20.66162        37.46163         0.38907
C         19.44091        38.19426         0.47194
C         20.62719        40.31370         0.34574
C         19.43110        39.61886         0.39065
C         20.63886        41.78245         0.43933
C         19.37456        42.54598         0.44473
C         20.61392        44.58023        -0.44497
C         19.37173        43.96962         0.16675
C         20.62026        46.09970        -0.41154
C         19.45390        46.73974        -0.67091
C         20.70961        48.96439        -0.69793
C         19.43116        48.21671        -0.89090
C         20.67896        50.39111        -0.28173
C         19.43101        51.14895        -0.41393
C         20.72755        53.24997        -0.42318
C         19.46098        52.52696        -0.40130
C         20.71726        54.75265        -0.60365
C         19.43815        55.37676        -0.10766
C         20.69445        57.37699         0.57995
C         19.46242        56.69427         0.31451
C         20.72320        58.74123         0.81146
C         23.22477         3.17526         0.71505
C         22.00891         3.82827         0.66933
C         23.18346         5.89389        -0.14954
C         21.93706         5.24912         0.43415
C         23.24456         7.38812         0.19356
C         21.91559         8.07863        -0.13904
C         23.20772        10.25777         0.03598
C         21.98048         9.57317         0.06479
C         23.21509        11.68887         0.16368
C         21.96342        12.39957         0.22513
C         23.19161        14.53670         0.49492
C         21.95123        13.80571         0.38759
C         23.19609        15.90237         0.73991
C         21.94426        16.64517         1.10434
C         23.14220        18.75464         0.34784
C         21.95874        18.08898         0.63818
C         23.14636        20.20213         0.13231
C         21.90753        20.95588         0.37330
C         23.03943        23.04477        -0.45393
C         21.89182        22.32006         0.22554
C         23.06296        24.53581        -0.17582
C         21.93088        25.22144         0.15344
C         23.12274        27.36009         0.13282
C         21.93502        26.68218         0.26825
C         23.10473        28.81824        -0.05980
C         21.90511        29.56674         0.35375
C         23.17788        31.68234         0.24081
C         21.98523        30.98673         0.46925
C         23.24804        33.16004         0.56278
C         21.92283        33.88138         0.38842
C         23.14049        36.01658         0.07762
C         21.90498        35.30091         0.25560
C         23.12379        37.44532         0.13164
C         21.89282        38.13842         0.29189
C         23.14329        40.31259         0.02447
C         21.93929        39.60654         0.59990
C         23.03929        41.74040        -0.43930
C         21.91838        42.50415         0.23538
C         23.11244        44.62482        -0.62330
C         21.91909        44.02785         0.13871
C         23.17886        46.09291        -0.29991
C         21.89704        46.83797        -0.00514
C         23.19582        48.93787        -0.46286
C         21.97678        48.26011        -0.46113
C         23.24237        50.39206        -0.51012
C         21.98891        51.12110        -0.21135
C         23.21212        53.26424        -0.39051
C         21.93758        52.58214        -0.35906
C         23.23311        54.67744        -0.32239
C         21.99017        55.41503        -0.09905
C         22.99611        57.22745         1.53995
C         21.95391        56.62033         0.56509
C         23.14799        58.71714         1.29700
C         21.96615        59.44751         1.00252
C         23.23812        61.51644         1.03405
C         22.02452        60.85157         0.88168
C         24.45712         3.86057         0.56027
C         25.68272         5.96518         0.14476
C         24.48830         5.22241         0.23858
C         25.72494         7.36049        -0.11762
C         24.44113         8.08984        -0.47775
C         25.66912        10.23336        -0.04318
C         24.46208         9.55671        -0.10711
C         25.69403        11.67664         0.06621
C         24.43818        12.39673         0.15935
C         25.65731        14.53104         0.28592
C         24.44286        13.81576         0.31639
C         25.68957        15.92413         0.47582
C         24.47369        16.66651         0.94718
C         25.60056        18.73159         0.10259
C         24.42301        18.07887         0.39730
C         25.56769        20.11682        -0.50658
C         24.31462        20.87146        -0.13245
C         25.57955        23.01887        -0.64562
C         24.35562        22.38305        -0.01799
C         25.57746        24.51537        -0.77485
C         24.27677        25.31668        -0.67740
C         25.65956        27.39414        -0.28995
C         24.43735        26.59891         0.12806
C         25.66872        28.76623        -0.21611
C         24.40573        29.54602        -0.23962
C         25.59018        31.72504        -0.28910
C         24.41453        31.01490        -0.04927
C         25.56532        33.16035        -0.42434
C         24.41647        33.86612        -0.09207
C         25.55831        36.02651        -0.39995
C         24.38156        35.31094        -0.14333
C         25.53668        37.48301        -0.43579
C         24.33423        38.18816        -0.01171
C         25.63557        40.31447        -0.10124
C         24.35587        39.62059        -0.05317
C         25.64213        41.80175        -0.30211
C         24.32157        42.50503        -0.29128
C         25.68004        44.55846        -0.40959
C         24.36921        43.85510        -0.33110
C         25.67725        46.04746        -0.46881
C         24.38140        46.77392        -0.35893
C         25.70249        48.86450        -0.61605
C         24.41539        48.19725        -0.37858
C         25.70961        50.35969        -0.77747
C         24.42845        51.08901        -0.57891
C         25.64292        53.21728        -0.17095
C         24.43092        52.53394        -0.43575
C         25.67969        54.62053        -0.08790
C         24.48348        55.33122        -0.40555
C         25.63216        57.23641         1.44092
C         24.35317        56.50670         1.76060
C         25.63504        58.68578         1.88623
C         24.36080        59.39935         1.47696
C         24.39891        60.79738         1.32843
C         26.91484         8.07908        -0.08371
C         28.13285        10.21658        -0.11917
C         26.93549         9.51326        -0.12666
C         28.16754        11.65070         0.00052
C         26.90429        12.35635         0.03273
C         28.15747        14.53350         0.29933
C         26.91274        13.84113        -0.18746
C         28.14519        15.89515         0.42089
C         26.90041        16.64320         0.39097
C         28.08303        18.79506         0.13350
C         26.87958        18.06762         0.26915
C         28.07211        20.16214        -0.25574
C         26.86618        20.89372        -0.35702
C         28.06214        23.06130        -0.61294
C         26.87470        22.30593        -0.50609
C         28.08439        24.48885        -0.71892
C         26.86328        25.24419        -0.67776
C         28.10247        27.37074        -0.79311
C         26.88010        26.64936        -0.55918
C         28.13035        28.75735        -0.77169
C         26.93389        29.51113        -0.33825
C         27.95868        31.69032        -1.26311
C         26.89054        31.00929        -0.42351
C         28.08023        33.16806        -0.93214
C         26.78203        33.85777        -0.92796
C         28.10406        36.08084        -0.73055
C         26.79489        35.38167        -0.85653
C         28.14017        37.47737        -0.52504
C         26.86655        38.23863        -0.52757
C         28.15222        40.30440         0.08803
C         26.85285        39.65161        -0.11123
C         28.30447        41.41065         0.86661
C         26.53928        42.58746         0.60780
C         28.06402        44.59744         0.60818
C         26.80883        43.87574         0.27684
C         28.12047        46.04072         0.20402
C         26.93190        46.76525        -0.11432
C         28.16672        48.88615        -0.05247
C         26.95592        48.15256        -0.26346
C         28.18949        50.30248        -0.10100
C         27.02817        51.11677        -0.64580
C         28.13494        53.14715         0.47261
C         26.86330        52.42205         0.11066
C         28.04655        54.61209         0.62505
C         26.86925        55.29207         0.43807
C         26.74620        56.68266         0.89700
C         29.36385        12.33471         0.15450
C         30.65508        14.51511         0.37817
C         29.39272        13.74769         0.66816
C         30.68275        15.90071         0.48205
C         29.40217        16.62314         0.69227
C         30.63344        18.78585         0.17316
C         29.36976        18.14473         0.47432
C         30.67766        20.10068        -0.55928
C         29.32737        20.82358        -0.66519
C         30.60400        23.07349        -0.68231
C         29.33034        22.32989        -0.78701
C         30.55804        24.48732        -0.83408
C         29.33925        25.17043        -0.86646
C         30.62311        27.37142        -0.98948
C         29.32775        26.62794        -1.27592
C         30.58314        28.83275        -1.01767
C         29.34440        29.48575        -1.02649
C         30.56686        31.72375        -1.22681
C         29.28129        30.93529        -1.30361
C         30.52391        33.18603        -1.04470
C         29.29839        33.88775        -0.99074
C         30.54056        36.08755        -0.87097
C         29.31761        35.35895        -0.86076
C         30.56854        37.49349        -0.71981
C         29.36316        38.18622        -0.51839
C         30.66215        40.32984        -0.10169
C         29.36377        39.70532        -0.58720
C         30.70405        41.64868         0.39144
C         29.51864        42.26255         1.07930
C         30.64350        44.51368         0.59037
C         29.35547        43.81050         0.83564
C         30.62800        45.95096         0.09501
C         29.34087        46.72796         0.25814
C         30.61585        48.86122         0.33069
C         29.37279        48.14415         0.17432
C         30.61060        50.25015         0.34973
C         29.40119        51.01056         0.18054
C         29.39450        52.41776         0.30074
C         31.87535        16.66359         0.43211
C         33.07784        18.82412         0.27894
C         31.86871        18.08839         0.34095
C         33.06722        20.27039         0.42615
C         31.74689        21.00431         0.05134
C         33.01912        23.16407        -0.16924
C         31.80233        22.42043        -0.34657
C         33.05869        24.53474        -0.47524
C         31.85890        25.19298        -1.13701
C         33.12780        27.40922        -1.09070
C         31.80418        26.69266        -0.93634
C         33.05849        28.87690        -0.75207
C         31.81162        29.58840        -0.90753
C         32.97596        31.75591        -0.58739
C         31.79959        30.99850        -0.88396
C         33.04135        33.14999        -0.73365
C         31.81579        33.88107        -1.12477
C         33.09436        36.08610        -0.77234
C         31.82602        35.38820        -1.09660
C         33.11453        37.49790        -0.73514
C         31.84374        38.27993        -1.02333
C         33.08865        40.34442        -0.22178
C         31.86975        39.67205        -0.40961
C         33.12163        41.70313         0.18267
C         31.91068        42.37370         0.46836
C         33.09561        44.59699         0.55351
C         31.84941        43.83654         0.59165
C         33.08666        45.96841         0.57575
C         31.86459        46.72978         0.46589
C         31.83847        48.09989         0.51028
C         34.26945        21.07738         0.40047
C         35.42799        23.21571         0.37808
C         34.23415        22.46963         0.23834
C         35.44892        24.60867         0.19457
C         34.24687        25.28835        -0.24677
C         35.45917        27.41220        -0.13249
C         34.28045        26.69427        -0.41344
C         35.47188        28.84500        -0.21746
C         34.21603        29.54748        -0.41977
C         35.47872        31.76210        -0.15714
C         34.16859        31.00123        -0.18482
C         35.49026        33.20311        -0.42455
C         34.27301        33.88767        -0.58892
C         35.53011        36.03432        -0.48919
C         34.28869        35.33949        -0.63653
C         35.55336        37.46139        -0.49386
C         34.33359        38.17857        -0.59576
C         35.57894        40.23108         0.11317
C         34.37592        39.69002        -0.67289
C         35.56651        41.73393         0.20693
C         34.39799        42.40922         0.31292
C         34.41268        43.87041         0.71666
C         36.64715        25.33761         0.38295
C         37.89167        27.47080         0.34930
C         36.67977        26.73011         0.21926
C         37.92292        28.85063         0.14176
C         36.68456        29.53204        -0.10936
C         38.02086        31.72206        -0.34332
C         36.71549        30.97662        -0.39174
C         37.97257        33.18631        -0.18798
C         36.75072        33.88742        -0.35754
C         37.99199        36.00735        -0.18085
C         36.75718        35.31305        -0.35244
C         37.98650        37.43901        -0.22990
C         36.82223        38.14657        -0.39794
C         36.87119        39.65766        -0.46913
C         39.15422        29.60796         0.25716
C         40.41429        31.75223         0.31869
C         39.22149        30.97108         0.07729
C         40.39908        33.11549         0.27662
C         39.18436        33.87966         0.04467
C         39.18324        35.28529         0.03783
O         26.07909        38.00385        -1.73108
O         25.47081        23.62450        -1.96480
O         34.78888        31.41149         1.08798
O         27.29891        30.39775         0.83502
O         25.85504        45.23618        -1.70199
O         27.26017        52.41148         1.49495
O         14.90081        33.31006         2.67645
O         18.56853        22.67389        -0.61818
O         16.42708        22.71198         2.51680
O         13.53451        36.00170         2.35392
O         23.58453        29.18773        -1.42233
O         10.84884        35.76229         1.36896
O         26.59053        34.67761        -2.13357
O         15.43491        45.70733        -2.09350
O         20.21758        48.66053        -2.07231
O         24.35528        55.45880         2.38996
O         27.20438        41.87715         1.61265
O         20.63018        55.01623        -2.10832
O         29.36027        17.51021         1.83069
O         32.04796        20.75139         1.42366
O         29.22651        21.44986        -1.99372
O         17.57012        39.07049         2.35172
O         21.33607        50.61191         1.01448
O         37.41914        31.29640        -1.63167
O         17.14816        47.37958         0.82448
O         31.92817        34.68215        -2.38443
O         21.57768        42.12621         1.60293
O         11.28322        31.21566        -1.90432
O         17.90260        33.57494         2.64028
O         11.85582        38.02157        -1.45463
O         16.21297        18.11879         2.11468
O         28.60520        44.40825         1.96469
O         25.72733        49.51037        -1.97112
O         12.25970        27.04620         1.89922
O         30.00108        31.28498        -2.53706
O         22.08344        44.49666         1.49385
H         21.68485        43.81253         2.08857
O         23.46101         7.49533         1.62328
H         24.28505         7.00849         1.84365
O         15.70695        46.93831        -2.80436
H         14.87112        47.45784        -2.70175
O         17.11744        42.95007         2.38902
H         16.69932        42.20007         2.88109
O          9.11237        31.31472        -3.27369
H         10.08250        31.17604        -3.38478
O         17.76822        49.27899        -2.27453
H         18.61698        49.35151        -2.77270
O         21.81652        54.45953        -2.72041
H         21.46644        53.67477        -3.20807
O         23.51104        33.22680         2.00973
H         22.76940        32.74099         2.45248
O         33.43937        27.35706        -2.52431
H         33.22324        26.43940        -2.82892
O         24.63846        16.82664         2.42100
H         24.92643        15.95781         2.77559
O         20.87213         7.84206         2.07577
H         21.81126         7.68369         2.33850
O         23.94226        25.71264        -2.02265
H         23.99786        24.89918        -2.57531
O          7.29381        37.77914        -0.27080
H          7.39082        37.35758         0.60761
O         17.07807        25.28907         2.89939
H         17.03077        24.33224         3.16032
O         15.55402        40.62013         2.84605
H         15.63242        39.70841         3.22885
O         30.70986        45.78811        -1.37710
H         31.61147        45.46038        -1.58460
O         29.29757        40.03228        -2.00489
H         30.07632        39.60924        -2.43947
O         16.86986        13.66918         2.19653
H         16.83126        14.58398         2.55067
O         34.55883        40.04934        -2.07015
H         33.77221        39.71363        -2.55717
O         21.79071        47.05012         1.45379
H         21.88676        46.16331         1.88315
O         14.11698        37.06120        -1.00739
H         13.51462        37.35761        -1.73303
O         22.34603        57.08986         2.83715
H         22.56326        56.18508         3.16035
O         26.92767        14.00499        -1.66022
H         26.84096        14.96455        -1.84689
O         31.81984        38.51690        -2.47925
H         31.79951        37.63907        -2.92105
O         22.95165        44.49953        -2.06750
H         23.79932        44.80901        -2.46464
O         29.34192        13.61808         2.14909
H         29.45328        14.51903         2.52390
O         19.50437        12.60192        -1.65646
H         20.38198        12.97501        -1.88760
O         25.45525        19.89396        -1.96119
H         25.37632        20.77401        -2.39040
O         27.41128        31.64662        -2.60921
H         28.15220        31.86201        -3.22157
O         20.43883        24.32121        -1.39418
H         19.59320        23.81962        -1.52356
O         11.59395        42.46424         2.08467
H         11.64776        41.52557         2.38116
O         24.52179        22.65789         1.40353
H         23.69994        22.38488         1.86499
O         15.54331        37.70754         3.03019
H         16.35886        37.37710         3.46751
O         29.83690        42.16825         2.49796
H         29.18107        42.73671         2.96410
O         18.59181        36.37808         2.64575
H         18.57969        35.51106         3.11476
O         18.11971        45.55841        -2.27835
H         17.58052        46.21993        -2.76891
O         11.68503        39.36750         1.98178
H         10.89696        38.78490         2.02535
O         22.84619        22.87014        -1.87874
H         22.00433        23.34610        -2.09347
O         17.61275        40.22244        -1.07103
H         18.19947        40.73785        -1.66554
O          8.96790        33.51787         0.65892
H          9.38035        34.05718         1.37224
O         21.92375        16.72408         2.57663
H         22.84486        16.96694         2.85140
O          9.61265        33.70871        -2.91166
H          9.34364        33.12557        -3.66130
O         27.40898        51.51407        -1.99512
H         27.17627        50.75736        -2.58242
O         21.08593        31.77460         2.51200
H         20.29715        32.15919         2.95431
O         26.78253        59.37937         1.40165
H         26.70558        59.46302         0.42934
O         14.25811        25.06492         2.89048
H         15.11428        25.33872         3.29976
O         17.68204        37.18540        -0.81223
H         17.56969        38.05632        -1.25904
O         35.46993        44.56977         0.05388
H         35.37443        44.43357        -0.91065
O         24.53304        56.63024        -0.80923
H         23.63295        56.91573        -1.07661
O         21.59369         7.86789        -1.52842
H         22.40050         8.10243        -2.04944
O         26.21003        42.00414        -1.63928
H         25.73267        41.41510        -2.26220
O         31.12666        19.79012        -1.90713
H         30.63219        20.39612        -2.51298
O         24.70070        26.18432         1.49916
H         24.83260        26.98424         2.04951
O         20.88921        23.34815         2.12476
H         20.92290        22.47919         2.57759
O         17.14233        17.02893        -1.22990
H         17.20840        16.19192        -1.73646
O         32.05385        25.01677        -2.59417
H         31.24826        25.38685        -3.02551
O         35.50497        39.73742         1.47970
H         34.72642        40.14981         1.91013
O         29.26072        26.58994        -2.74998
H         28.36773        26.26554        -2.99714
O         18.28540        49.97054         1.26691
H         18.53983        50.76097         1.78685
O         20.53897        44.14356        -1.82960
H         19.76146        44.59445        -2.24402
O         23.09036         5.72452        -1.59739
H         22.94391         4.76940        -1.76471
O         24.29664         8.04952        -1.92491
H         24.24481         7.09729        -2.18240
O         22.16815        39.61464         2.07131
H         22.02908        40.54610         2.37080
O         37.99192        40.16555         0.25509
H         37.79969        40.02282         1.20643
O         22.70828        41.70302        -1.86170
H         22.65453        42.64515        -2.17584
H          5.40379        31.15737        -1.87199
H          5.40299        33.61410        -2.07927
H          7.81235        26.93272        -1.61912
H          6.55762        29.09163        -1.41513
H          6.49771        35.71982        -1.59494
H          8.24920        37.85817        -2.08551
H         10.27813        22.59556        -1.09383
H          9.05864        24.76229        -1.40647
H          8.74635        40.15101        -0.65995
H          9.95675        42.26558        -0.37873
H         12.43113        18.37963        -0.28209
H         11.33928        20.49967        -0.54929
H         11.07982        44.49595         0.25488
H         12.29798        46.61706         0.17907
H         14.76421        13.99686         0.35229
H         13.56025        16.16293        -0.03463
H         13.50275        48.76269        -0.12498
H         14.73809        50.93058        -0.40167
H         17.30308         9.67401         0.05029
H         16.07883        11.74192         0.39080
H         16.02154        53.09079        -0.38984
H         17.27856        55.17903         0.00232
H         19.89564         5.43127         1.00701
H         18.53065         7.58191         0.19887
H         18.51788        57.21387         0.53739
H         19.79164        59.32248         0.74167
H         23.24871         2.10034         0.94421
H         21.08248         3.28127         0.89839
H         23.28334        62.60989         0.93489
H         21.10676        61.41411         0.65886
H         25.39955         3.31979         0.73029
H         26.63407         5.45073         0.35715
H         25.70062        58.70545         3.00992
H         25.35560        61.32014         1.46773
H         27.86719         7.54473         0.06007
H         29.08566         9.66632        -0.14506
H         28.92456        55.14927         1.01629
H         27.65016        57.31455         0.84117
H         30.31171        11.77487         0.13347
H         31.59985        13.96166         0.26529
H         31.55275        50.79241         0.52175
H         30.34624        52.95898         0.41243
H         32.84161        16.14010         0.39387
H         34.04094        18.30065         0.19976
H         34.04146        46.50782         0.67028
H         32.77484        48.65516         0.67702
H         35.24491        20.57355         0.47296
H         36.35191        22.69648         0.67253
H         36.52299        42.25815         0.35711
H         34.66263        43.90158         1.81685
H         37.56510        24.79761         0.65840
H         38.82173        26.93097         0.58186
H         38.93649        37.98420        -0.12802
H         36.97777        39.98170        -1.53572
H         40.06319        29.06068         0.55125
H         41.34987        31.21944         0.54504
H         41.32802        33.67613         0.45787
H         40.12553        35.83161         0.19124
