         260
 CSIRO Nanostructure Databank - Neutral Graphene Oxide Data Set
C         30.45852        31.71076        -0.40878
C         30.49195        32.97760        -0.32462
C         30.44839        36.13941        -0.71397
C         30.43643        37.37175        -0.62767
C         30.53701        40.70125        -0.17569
C         30.63717        41.93327        -0.34121
C         32.79305        28.69372        -0.31351
C         31.76546        29.43026        -0.28705
C         32.86349        31.50925        -0.53284
C         31.51643        30.79336        -0.45057
C         32.87858        33.00282        -0.73161
C         31.51654        33.75947        -1.11400
C         32.85190        36.00187        -0.40814
C         31.61458        35.26093        -0.90972
C         32.78053        37.46985         0.03689
C         31.40130        38.29028         0.05329
C         32.88217        40.39066        -0.75024
C         31.53527        39.68177        -0.52558
C         33.00732        41.89525        -0.77912
C         31.79901        42.70558        -0.56212
C         33.06422        44.63418        -1.18532
C         32.05011        44.08677        -0.70241
C         35.57985        27.12370         0.61029
C         35.37773        28.54547         0.33452
C         34.13933        29.27619        -0.15041
C         35.21884        31.48735         0.24045
C         34.08134        30.78967        -0.02994
C         35.22390        32.98358         0.32615
C         33.89067        33.73608         0.16434
C         35.32577        35.91288         0.07086
C         34.04668        35.22097        -0.06631
C         35.38789        37.40837        -0.01435
C         34.09849        38.21026         0.02508
C         35.48362        40.25317        -0.86919
C         34.15562        39.58904        -0.60184
C         35.53740        41.71639        -1.35769
C         34.22410        42.48704        -1.12773
C         35.64704        44.66300        -1.59112
C         34.31709        43.94682        -1.46898
C         35.84473        46.11175        -1.42049
C         37.85461        26.63655         1.29581
C         36.58477        26.38927         0.69835
C         37.65901        28.88838         1.49392
C         36.53508        29.36213         0.86717
C         37.79726        31.54440         0.34058
C         36.52388        30.75601         0.30952
C         37.78274        32.99193         0.28149
C         36.52826        33.72186         0.23423
C         37.87945        35.85882         0.22995
C         36.63674        35.13811        -0.34433
C         37.92891        37.33493         0.02108
C         36.68922        38.09815        -0.34465
C         37.87066        40.27134        -0.09686
C         36.71543        39.59410        -0.33802
C         37.87624        41.75551        -0.14612
C         36.71248        42.49507        -0.73732
C         37.95795        44.69156        -0.35825
C         36.99322        43.90290        -1.30677
C         38.22310        46.13633        -0.82922
C         36.96562        46.63671        -1.28766
C         40.21557        24.76153        -0.87623
C         39.61141        25.46970        -0.05294
C         40.29487        27.24149         1.45222
C         39.16419        26.39212         0.90632
C         40.28172        28.75117         1.57486
C         38.99506        29.57571         1.48202
C         40.29820        31.54760         0.38322
C         39.03780        30.95494         0.92909
C         40.30226        33.02606         0.21015
C         39.02302        33.67867         0.74860
C         40.23497        35.87550         1.10113
C         39.00197        35.18468         0.58716
C         40.29248        37.38590         1.08448
C         39.04504        38.10983         0.65537
C         40.44121        40.25536         0.39615
C         39.06068        39.58977         0.51412
C         40.29148        41.74060         0.74101
C         39.21470        42.44702        -0.04067
C         40.46643        44.66117         0.36284
C         39.27067        43.93197        -0.16236
C         40.70391        46.07004        -0.18202
C         39.41797        46.76318        -0.68209
C         40.60214        48.92028        -0.39639
C         39.69452        48.16239        -0.78233
C         42.57812        24.78512        -1.11295
C         41.33610        24.20565        -1.51273
C         42.80944        27.34056         0.90539
C         41.63829        26.55068         1.33983
C         42.84148        28.68972         1.03157
C         41.63278        29.53364         1.47896
C         42.84997        31.54494         0.32312
C         41.56337        30.78368         0.56549
C         42.85290        33.08438         0.17900
C         41.55273        33.66966         0.69453
C         42.80526        35.86098         1.34995
C         41.52617        35.09426         1.12004
C         42.76647        37.35719         1.58973
C         41.56351        38.13265         1.21314
C         42.75989        40.29047         1.41215
C         41.59439        39.54775         1.12178
C         42.72121        41.77033         1.59234
C         41.45670        42.52771         1.24096
C         42.79898        44.73516         1.10888
C         41.50468        43.99631         0.94824
C         42.69552        46.21121         1.40457
C         41.51142        46.92943         0.81320
C         42.80104        48.99904         1.10019
C         41.50147        48.48434         0.68779
C         43.35072        25.47245        -0.46158
C         44.95767        27.36793        -0.41213
C         44.00069        26.50037         0.41325
C         45.29280        28.74539         0.23127
C         44.19414        29.39555         1.06687
C         45.38152        31.62293         0.72987
C         44.12341        30.83998         0.58666
C         45.33550        33.09366         0.65986
C         44.11678        33.77672         0.71319
C         45.28842        35.89017         1.16398
C         44.10318        35.19515         1.01521
C         45.40874        37.34256         1.64431
C         44.06331        38.09687         1.78170
C         45.36349        40.32043         1.63445
C         44.03354        39.59712         1.76223
C         45.35600        41.82984         1.72101
C         44.01527        42.53004         1.74924
C         45.34067        44.74092         1.76340
C         44.06105        44.00369         1.42982
C         45.27410        46.27089         1.90730
C         43.95411        46.97303         1.85672
C         43.78278        48.39355         1.53900
C         47.34004        27.41238        -0.99840
C         46.31310        26.79784        -0.70681
C         47.51831        28.87229        -0.93359
C         46.41751        29.45355        -0.07975
C         47.79542        31.69822        -0.08854
C         46.63628        30.87449         0.35178
C         47.78418        33.10895         0.22172
C         46.60117        33.75986         0.67313
C         47.81889        36.01649         0.55578
C         46.57112        35.18752         0.99829
C         47.54903        37.43672         0.11806
C         46.26468        38.14977         0.58042
C         47.67940        40.37110         0.44820
C         46.55302        39.58762         1.05819
C         47.80069        41.82720         0.81450
C         46.60821        42.58639         1.36210
C         47.68095        44.78372         0.77119
C         46.55841        44.06668         1.22048
C         47.50010        46.19804         0.98060
C         46.50010        46.83679         1.33408
C         50.05580        29.15063        -1.55410
C         48.73860        29.67421        -1.21043
C         50.06547        31.86153        -1.04031
C         48.87950        31.11054        -0.74922
C         50.12759        33.20937        -0.65784
C         48.96690        33.88847        -0.10570
C         50.13589        36.10657        -0.33702
C         48.94760        35.29039        -0.02414
C         50.02902        37.59951        -0.55285
C         48.67109        38.26215        -0.43621
C         49.71065        40.51481        -1.08969
C         48.65532        39.75655        -0.28305
C         49.83376        42.00218        -0.79111
C         48.90755        42.64138         0.17104
C         49.86167        44.66539        -0.54583
C         48.78939        44.14134         0.17351
C         51.14960        29.72269        -1.60191
C         52.51519        31.93513        -1.50905
C         51.24715        31.19684        -1.88766
C         52.41743        33.15166        -1.29032
C         51.35194        34.00779        -0.87343
C         52.33024        36.34453        -1.13653
C         51.35479        35.36915        -0.78182
C         52.37651        37.58095        -1.25186
C         51.06153        38.34073        -1.44048
C         51.95225        40.64385        -2.06586
C         51.14220        39.80988        -1.03966
C         51.79173        41.87591        -2.07210
C         50.82684        42.74171        -1.45836
C         50.80851        44.15211        -1.20759
O         43.72453        44.32855         0.03147
O         38.64772        38.99101         1.77520
O         35.58267        36.69415         1.27437
O         47.68214        29.53148        -2.21353
O         43.97521        38.84786         3.03185
O         42.70285        36.39591         2.70482
O         37.32495        30.88504        -0.90864
O         34.83477        39.43387        -1.89690
O         35.84699        33.53457         1.54647
O         42.98056        46.51646         2.80624
O         39.02446        30.75142         2.37038
O         40.01144        36.61133         2.32838
O         33.27952        32.16438        -1.81721
O         37.58561        37.61319        -1.38494
O         40.34352        42.12607         2.13053
O         46.40338        39.77263         2.48578
O         36.81460        42.35386         0.69396
O         35.15549        28.83059        -1.07620
O         40.22118        27.88531         2.75889
O         46.28464        31.12513         1.75123
O         39.66625        43.06278        -1.27942
O         41.76521        25.37860         1.67244
O         49.02848        42.09424         1.55083
O         40.82567        30.64313        -0.68232
O         40.82639        40.15066        -0.94678
O         32.05274        39.84562        -1.84427
O         37.69072        27.68071         2.23241
O         40.79498        47.79953         1.73351
O         34.96814        44.21769        -2.75454
O         45.46803        45.41967         3.04701
O         32.49987        35.86608        -1.88058
O         47.59157        35.66405         1.92683
O         46.26291        42.26604         2.76680
O         43.60476        30.92865        -0.78415
O         41.54302        33.99246         2.13819
O         33.42641        37.89593         1.26910
O         43.23564        42.19229         2.92000
O         47.70152        37.62460        -1.33860
O         36.69417        35.09539        -1.69751
O         50.49649        37.11842         0.72225
O         37.28459        44.81605         0.90041
H         37.86888        45.25739         1.55097
O         44.67771        25.89863         1.50038
H         44.03365        25.34844         1.99674
O         50.64866        38.21786        -2.79209
H         51.27431        38.73939        -3.34387
O         41.93147        30.03094         2.80318
H         41.42799        29.49114         3.45424
O         35.79971        41.67854        -2.77088
H         35.30102        40.91412        -3.14481
O         38.98322        33.40881         2.18777
H         39.89176        33.61242         2.54306
O         37.63024        43.78376        -2.56996
H         37.06871        43.21430        -3.14580
O         31.25663        33.55251        -2.48333
H         31.62997        34.30303        -2.99486
O         42.87104        33.38889        -1.23477
H         43.23046        32.60046        -1.70447
O         51.68021        39.93993         0.23537
H         52.38712        39.27012         0.36294
O         49.22718        40.45194        -2.45176
H         49.30870        39.52247        -2.77740
O         31.01747        38.48618         1.39708
H         30.92773        37.62274         1.84926
O         44.27393        27.63878        -1.62685
H         44.84931        28.17540        -2.21222
O         33.23019        33.63360         1.47124
H         33.88637        33.93016         2.14457
O         45.37898        38.26108        -0.55381
H         45.93418        38.22980        -1.37093
O         46.03945        37.30181         2.91086
H         45.59891        37.96576         3.49442
O         44.57481        29.33193         2.44957
H         43.84870        29.73486         2.98244
O         50.96683        31.43349        -3.23568
H         51.63770        30.99195        -3.79504
O         41.58387        45.91797        -1.31503
H         41.22961        45.21756        -1.90404
O         41.27936        23.24399        -2.42384
H         40.35986        22.95379        -2.58581
