         349
 CSIRO Nanostructure Databank - Neutral Graphene Oxide Data Set
C          1.59451         2.49697         1.81617
C          1.54460         3.87048         1.76750
C          2.79362         1.77695         1.61575
C          2.75514         4.66417         1.52159
C          1.35667         6.76238         0.88719
C          1.27454         8.04780         0.49091
C          2.67676         6.10942         1.03141
C          2.46866         8.78741         0.11060
C          1.32439        10.99623         0.46359
C          1.41722        12.33386         0.73906
C          2.45754        10.20281         0.09019
C          2.71347        13.02352         0.82027
C          1.72400        15.19303         1.94802
C          1.94207        16.39400         2.55917
C          2.85950        14.39571         1.44826
C          3.25592        16.90922         2.81074
C          3.42709        18.21532         3.37620
C          4.00661         2.43003         1.31348
C          4.03078         3.91327         1.27864
C          5.18153         1.72405         1.04151
C          5.13252         4.56795         0.44214
C          3.78789         6.67784         0.20329
C          3.65628         8.04734        -0.17341
C          4.89426         5.89325        -0.16705
C          4.67799         8.74390        -1.06177
C          3.72952        10.93661        -0.11875
C          3.93102        12.18635         0.64075
C          4.92539        10.19109        -0.62613
C          5.20057        12.64326         0.88320
C          4.19551        14.71702         2.06035
C          4.41184        16.10634         2.55767
C          5.38834        13.84831         1.73540
C          5.67750        16.52494         2.93341
C          4.64644        18.65618         3.78188
C          5.89412        17.83024         3.66273
C          6.32461         2.35737         0.44977
C          6.22609         3.69542        -0.01458
C          7.54006         1.63492         0.31050
C          7.46674         4.41239        -0.44853
C          5.94466         6.43776        -1.07346
C          5.96348         7.93061        -1.30405
C          7.17776         5.58513        -1.40878
C          7.28878         8.68276        -1.50219
C          6.27122        10.67008        -0.24825
C          6.38083        11.91694         0.42943
C          7.41940         9.93898        -0.63841
C          7.65617        12.51169         0.59663
C          6.71794        14.45426         1.84391
C          6.89861        15.64929         2.77061
C          7.80542        13.81510         1.22485
C          8.13767        16.49653         2.38995
C          6.89146        18.59520         2.81903
C          8.00253        17.97400         2.25859
C          8.57293         2.05926        -0.61547
C          8.45314         3.50664        -1.17019
C          9.90117         1.47780        -0.66243
C          9.64339         4.16019        -1.81764
C          8.46033         6.38856        -1.51385
C          8.52145         7.78460        -1.37875
C          9.63277         5.64785        -1.78460
C          9.79771         8.39603        -1.27010
C          8.69284        10.50002        -0.43308
C          8.81635        11.82024         0.12740
C          9.90166         9.79436        -0.85147
C         10.06885        12.48277         0.12532
C          9.07429        14.46345         1.13716
C          9.23693        15.84313         1.61340
C         10.16767        13.84615         0.49611
C         10.26853        16.66931         0.97401
C          9.04610        18.70401         1.64532
C         10.21048        18.08734         1.09246
C         11.02759         2.10478        -1.20964
C         10.98136         3.42104        -1.89871
C         12.28782         1.51809        -1.04668
C         12.26664         4.16390        -2.15910
C         10.85474         6.30288        -1.95848
C         10.96532         7.64321        -1.55083
C         11.95753         5.59296        -2.70747
C         12.31426         8.23952        -1.40858
C         11.12842        10.41285        -0.79152
C         11.33972        11.73345        -0.11315
C         12.38126         9.68792        -1.07227
C         12.46037        12.56738        -0.68931
C         11.35608        14.60369         0.17497
C         11.35598        16.02276         0.34256
C         12.47144        13.96695        -0.45225
C         12.47144        16.80046        -0.10006
C         11.30609        18.84683         0.60776
C         12.44463        18.22095         0.05701
C         13.49707         2.13245        -1.48157
C         13.49173         3.49975        -2.06486
C         14.65996         1.41258        -1.27598
C         14.84974         4.04230        -2.31524
C         13.16508         6.46960        -2.80641
C         13.44686         7.61176        -2.14107
C         15.07227         5.36731        -2.85481
C         14.84262         8.22948        -1.92668
C         13.54868        10.48371        -1.56821
C         13.59425        11.93534        -1.22763
C         14.77121         9.75833        -2.06043
C         14.76997        12.66865        -1.48550
C         13.61538        14.73842        -0.83062
C         13.62091        16.15680        -0.64189
C         14.78347        14.08390        -1.31918
C         14.77946        16.92167        -0.96291
C         13.59543        18.96825        -0.35154
C         14.73529        18.34487        -0.82643
C         15.98892         1.87361        -1.77488
C         16.01480         3.37199        -1.90121
C         17.17193         1.29612        -1.06186
C         17.26879         4.05077        -1.77612
C         16.14247         6.16385        -2.57231
C         16.06247         7.67662        -2.74747
C         17.36625         5.46301        -2.17705
C         17.32350         8.38127        -2.22779
C         16.05341        10.49333        -2.01880
C         16.07801        11.92045        -1.52964
C         17.26641         9.82604        -2.08617
C         17.22263        12.68645        -2.14840
C         15.96484        14.86122        -1.57262
C         15.97783        16.25176        -1.39045
C         17.18712        14.19490        -2.06347
C         17.21408        17.00410        -1.54943
C         15.90386        19.18680        -1.28439
C         17.20713        18.42831        -1.39420
C         18.33257         2.01499        -0.87848
C         18.40308         3.42672        -1.22835
C         19.52369         1.38529        -0.37521
C         19.58683         4.17583        -0.86312
C         18.59836         6.25335        -1.86820
C         18.48543         7.72869        -1.85261
C         19.66973         5.59556        -1.10273
C         19.68415         8.44850        -1.48668
C         18.51199        10.56600        -1.92198
C         18.52004        11.99875        -2.03776
C         19.70151         9.87067        -1.66941
C         19.70430        12.74492        -1.98884
C         18.47127        14.90486        -1.96257
C         18.44589        16.33136        -1.74795
C         19.66832        14.18928        -2.03759
C         19.67863        17.06578        -1.67817
C         18.38988        19.14449        -1.41043
C         19.65768        18.49212        -1.51633
C         20.66793         2.10526        -0.09692
C         20.66635         3.53119        -0.22043
C         21.92183         1.32798         0.23865
C         21.68342         4.40184         0.49274
C         20.78841         6.36109        -0.75697
C         20.82170         7.75249        -1.02618
C         22.07539         5.67694        -0.31993
C         22.15785         8.44467        -0.89143
C         20.93207        10.60062        -1.45218
C         20.95090        12.05100        -1.69681
C         22.03073         9.94487        -0.94235
C         22.13979        12.74102        -1.62287
C         20.93474        14.94731        -2.03085
C         20.91989        16.39291        -1.73340
C         22.22155        14.19831        -1.82772
C         22.13615        17.09103        -1.54757
C         20.86887        19.20229        -1.46138
C         22.11507        18.52811        -1.44663
C         22.98461         2.13518         0.95331
C         22.89580         3.65138         1.02197
C         24.30691         1.54313         1.10447
C         24.13881         4.39888         1.24768
C         22.98715         6.57852         0.52096
C         23.02166         7.91954         0.25932
C         24.03658         5.87815         1.31048
C         24.09177         8.79265         0.83636
C         23.16077        10.77679        -0.48068
C         23.37953        12.02488        -1.25475
C         24.24500        10.22638         0.37869
C         24.68278        12.73010        -1.14248
C         23.37018        14.89873        -1.12338
C         23.38224        16.39913        -1.33990
C         24.70629        14.22418        -1.53111
C         24.54798        17.10188        -1.09134
C         23.33462        19.22946        -1.28148
C         24.55697        18.54777        -1.09550
C         25.37871         2.29161         1.56324
C         25.30807         3.74811         1.62831
C         26.61088         1.63649         1.88921
C         26.52690         4.47683         1.95847
C         25.29264         6.63967         1.68357
C         25.28681         8.12370         1.46892
C         26.57625         5.91959         1.84293
C         26.60672         8.84734         1.53014
C         25.56336        10.93460         0.40832
C         25.74611        12.14537        -0.26275
C         26.69561        10.29282         1.12448
C         26.98334        12.86774        -0.25095
C         25.88039        14.94601        -0.94219
C         25.74485        16.38270        -0.51885
C         27.02762        14.25067        -0.62147
C         27.04122        17.15044        -0.55689
C         25.76391        19.24867        -0.84530
C         27.00243        18.58152        -0.60866
C         27.72636         2.34211         2.29966
C         27.68385         3.78272         2.32893
C         28.97472         1.63421         2.54178
C         28.89153         4.53948         2.69799
C         27.78947         6.60439         1.86050
C         27.87424         8.02260         1.31948
C         29.00713         5.93796         2.24658
C         29.12224         8.77694         1.81613
C         28.05846        10.93036         1.04217
C         28.15170        12.34027         0.45492
C         29.26012        10.14517         1.17459
C         29.53455        12.78696        -0.01128
C         28.30155        15.01115        -0.52047
C         28.25466        16.48221        -0.38772
C         29.58545        14.29900        -0.23980
C         29.47883        17.18462        -0.18750
C         28.21176        19.28798        -0.43968
C         29.43581        18.61762        -0.20234
C         30.14481         2.27005         2.76911
C         30.20987         3.73733         2.91188
C         31.44907         4.43851         2.61038
C         30.26153         6.55519         2.21898
C         30.41242         7.95137         1.64602
C         31.45714         5.78718         2.37604
C         31.51774         8.79133         2.26383
C         30.65961        10.73263         0.99281
C         30.64817        12.28592         0.96691
C         31.58447        10.10898         2.01994
C         31.95385        12.94809         0.59231
C         30.78283        15.06780         0.15683
C         30.72510        16.49806         0.08093
C         31.97726        14.29971         0.36857
C         31.87629        17.28930         0.32109
C         30.63501        19.35227         0.02086
C         31.82637        18.68635         0.27831
O         16.97115        13.45637        -3.34210
O         29.20788        14.61753        -1.64145
O         23.14759        11.03544         0.96788
O         10.05108         3.49117        -3.03310
O         22.50482         2.80467         2.17251
O         14.08265         5.90244        -3.68578
O          4.65050        13.71933         3.02669
O         28.01296        12.19084         1.88104
O          7.92260         2.44773        -1.91499
O         24.25426         8.74277         2.28282
O          2.83946        14.25819        -0.01236
O         12.66235         8.66961        -0.02259
O         24.28510         6.29432         2.69265
O         26.54162         9.87164         2.55303
O         18.42612         5.67689        -3.22031
O         21.86717        14.64818        -3.15678
O          9.30925        16.02809         3.11999
O         24.39864        11.89720        -2.32276
O          2.96332         5.79873         2.43454
O          4.20285        11.11984        -1.51803
O         29.42984         4.26726         4.02604
O         13.78127        10.25671        -3.01268
O          5.58660         7.01930        -2.38540
O          5.14940         4.54254         1.94816
O         22.79668         5.39990        -1.48688
O         20.98387         4.93589         1.65024
H         21.08813         4.27686         2.37404
O         15.18999         7.93347        -0.55411
H         14.40160         8.15196         0.00645
O         22.90418         8.05989        -2.09592
H         22.95107         7.05097        -2.08135
O         15.58635        19.75137        -2.57625
H         15.50602        19.01536        -3.21753
O         15.87047         8.03437        -4.12090
H         16.60488         7.65336        -4.64517
O         24.84533        14.33280        -2.96067
H         24.57545        13.46343        -3.34494
O          8.11673         4.93458         0.74406
H          7.47071         4.92022         1.48415
O         30.65527         7.72742         0.22945
H         31.00759         8.57532        -0.15632
O         31.19001        10.27982        -0.29379
H         30.72452        10.78494        -1.00928
O         16.09585         1.37205        -3.16900
H         15.37206         1.78972        -3.68431
O          7.28554         9.15993        -2.87397
H          6.74708         8.52935        -3.40173
O         30.38236        12.71368         2.31569
H         30.41690        13.69159         2.35349
O         22.47361         0.81572        -0.98861
H         22.57187         1.55781        -1.62107
O         11.84333        11.37255         1.23867
H         11.23056        10.70510         1.61552
O          6.92789         4.94448        -2.67271
H          6.47333         5.59803        -3.25185
O         16.46338        11.84540        -0.10445
H         15.80445        11.29114         0.36588
O         28.99838         9.04118         3.22961
H         28.15606         9.54273         3.37522
O         29.73400        12.16783        -1.30577
H         29.52556        12.86300        -1.98186
O          6.42096        17.59278         4.99716
H          6.77010        16.66714         5.01767
O         27.98432         7.91246        -0.12651
H         28.91423         7.61146        -0.31510
O         25.41668        16.26958         0.94271
H         25.28793        17.18294         1.28054
O          7.17315        15.10225         4.09868
H          8.15642        14.99441         4.14726
O         23.17009        14.66723         0.29066
H         23.88941        15.14214         0.77974
O         11.46507         5.41801        -4.05908
H         12.24629         5.23805        -4.62643
O          4.01133         8.79206        -2.34978
H          3.71815         9.72705        -2.48782
H          0.67394         1.93570         2.02952
H          0.60019         4.38909         1.97856
H          2.78207         0.68005         1.68015
H          0.45593         6.22901         1.21954
H          0.29821         8.55011         0.45968
H          0.33286        10.52313         0.50653
H          0.50361        12.91002         0.94065
H          0.70001        14.86834         1.71632
H          1.08352        17.01149         2.86224
H          2.53423        18.84248         3.51996
H          5.19088         0.63178         1.16784
H          4.74426        19.64041         4.26287
H          7.68225         0.70682         0.88330
H          6.71500        19.66234         2.61065
H         10.07367         0.58099        -0.04697
H          8.98537        19.80238         1.64675
H         12.35518         0.52975        -0.56800
H         11.28520        19.94297         0.69957
H         14.58322         0.40509        -0.83838
H         13.57461        20.06475        -0.26294
H         17.14273         0.22861        -0.79578
H         16.03409        20.05650        -0.59070
H         19.51986         0.29462        -0.23090
H         18.36300        20.23907        -1.30321
H         21.65670         0.43659         0.86282
H         20.84969        20.29898        -1.37567
H         24.44001         0.47732         0.86887
H         23.31981        20.32874        -1.23327
H         26.65459         0.53917         1.82194
H         25.75053        20.34872        -0.85549
H         28.95527         0.53778         2.44954
H         28.20436        20.38742        -0.48061
H         31.08381         1.70013         2.83787
H         32.37276         3.85200         2.49682
H         32.41589         6.28437         2.16833
H         32.20898         8.32868         2.98487
H         32.34255        10.74216         2.50448
H         32.89553        12.39088         0.70002
H         32.95081        14.80965         0.30578
H         32.83607        16.80086         0.53733
H         30.60507        20.45077        -0.00200
H         32.74517        19.26199         0.45756
