         620
 CSIRO Nanostructure Databank - Neutral Graphene Oxide Data Set
C         22.95506        27.54184         1.00978
C         22.89901        28.86021         0.71940
C         22.90826        31.78642         0.30140
C         22.95537        33.17263         0.41787
C         23.11005        36.06586         0.96642
C         23.14658        37.41125         1.08669
C         23.41093        40.38142         1.78968
C         23.55516        41.43636         2.62686
C         24.06305        44.02688         4.17115
C         24.38585        45.34347         4.41552
C         25.28757        24.60981         0.64468
C         24.13636        25.35487         0.87643
C         25.31076        27.41087         0.24621
C         24.12276        26.74771         0.69169
C         25.30024        28.82152         0.00609
C         23.97223        29.52928        -0.10640
C         25.29960        31.70251        -0.09524
C         24.06799        31.02811         0.09186
C         25.32400        33.12092        -0.07640
C         24.16703        33.87418         0.24451
C         25.49693        35.95225         0.44140
C         24.27928        35.30656         0.52719
C         25.67851        37.29349         1.11605
C         24.42461        38.13833         0.94024
C         25.91438        40.02713         1.76196
C         24.56670        39.59922         1.31649
C         25.98250        41.03197         2.70710
C         24.85751        41.84038         3.12559
C         26.89222        44.14051         3.22447
C         25.03602        43.03335         3.83417
C         26.62672        45.54691         3.21669
C         25.57595        46.07511         4.03486
C         26.66355        48.24339         3.87880
C         25.62103        47.45478         4.34073
C         27.80341        23.09428         0.09155
C         27.73266        24.47501         0.10148
C         26.49838        25.23632         0.25504
C         27.70015        27.35063        -0.39494
C         26.49467        26.64301         0.06849
C         27.73139        28.81596        -0.35693
C         26.50984        29.53516        -0.23642
C         27.76416        31.63935        -0.56016
C         26.53085        30.96714        -0.31266
C         27.80762        33.09115        -0.65942
C         26.54277        33.81763        -0.50535
C         27.95948        35.95600        -0.22012
C         26.63075        35.33159        -0.24716
C         28.04818        37.33392         0.17433
C         26.94951        38.02960         0.74280
C         28.30344        40.08179         0.88100
C         27.08685        39.37137         1.17798
C         28.49378        41.47612         1.18365
C         27.85135        42.10714         2.24820
C         28.22377        44.32285         1.16244
C         27.73948        43.51805         2.32634
C         28.42026        45.79897         1.49173
C         27.51673        46.40910         2.48315
C         28.62692        48.69385         2.45432
C         27.58889        47.76468         2.92498
C         29.32426        49.61881         3.27184
C         30.25226        22.99958        -0.23759
C         29.02936        22.37216        -0.00600
C         30.21951        24.46445        -0.38600
C         29.03793        25.23171         0.17366
C         30.26918        27.39124        -0.33191
C         29.00903        26.61323        -0.44146
C         30.21909        28.78745        -0.35039
C         28.96605        29.49716        -0.46807
C         30.24439        31.52405        -1.15040
C         28.96303        30.90688        -0.64214
C         30.20865        33.04877        -1.27238
C         28.98395        33.79642        -0.88339
C         30.34467        35.91970        -0.83019
C         29.08064        35.23256        -0.68128
C         30.38927        37.33265        -0.62012
C         29.26509        38.03678        -0.09671
C         30.47289        40.18588        -0.33643
C         29.33789        39.43627         0.14656
C         30.48143        41.60276        -0.30030
C         29.43586        42.28310         0.41745
C         30.31444        44.47691        -0.33640
C         29.37971        43.66893         0.46272
C         30.20830        45.98353        -0.36157
C         29.06698        46.51113         0.50110
C         30.14211        49.33882         0.64643
C         29.04477        48.64085         1.12469
C         30.88985        50.19346         1.46057
C         30.41384        50.34718         2.78772
C         32.77745        20.26647        -0.72385
C         31.57215        20.92436        -0.58697
C         32.75023        23.07314        -0.43375
C         31.50986        22.33058        -0.44825
C         32.75607        24.46876        -0.28245
C         31.52602        25.24015        -0.41596
C         32.71624        27.42348        -0.02136
C         31.49878        26.69936        -0.17738
C         32.71729        28.81250         0.03087
C         31.44879        29.54800        -0.06299
C         32.74963        31.73374        -0.56005
C         31.45166        31.03947        -0.34020
C         32.78011        33.00076        -1.05644
C         31.52164        33.75714        -1.30064
C         32.79752        35.88610        -1.23720
C         31.56412        35.22374        -1.09880
C         32.75738        37.36226        -1.54857
C         31.57189        38.06776        -0.93485
C         32.76341        40.18985        -1.37569
C         31.57668        39.45476        -0.87603
C         32.74944        41.69005        -1.38046
C         31.56173        42.39812        -0.83569
C         32.69477        44.60508        -1.19493
C         31.53812        43.78153        -0.77585
C         32.72814        46.05770        -0.86284
C         31.50589        46.76596        -0.61734
C         32.81765        48.90948        -0.62395
C         31.60780        48.17646        -0.61285
C         32.79174        50.34759        -0.21833
C         32.03613        50.89496         0.86817
C         33.39267        52.95134         0.83553
C         32.34333        52.18508         1.34486
C         35.31307        18.86090        -1.03479
C         35.27487        20.25877        -0.80607
C         34.01779        20.96355        -0.67758
C         35.25707        23.08839        -0.41696
C         34.01118        22.36758        -0.49626
C         35.27253        24.48951        -0.18615
C         33.99586        25.17436         0.06278
C         35.26841        27.40339         0.02718
C         33.98778        26.68268         0.19558
C         35.26781        28.81027         0.00880
C         33.99037        29.55109         0.15638
C         35.29097        31.68194        -0.49049
C         34.00083        31.04173        -0.15769
C         35.30544        33.02578        -0.88533
C         34.07009        33.69189        -1.44192
C         35.27051        35.89581        -1.22246
C         34.04228        35.19880        -1.24894
C         35.26983        37.36081        -1.22730
C         34.05730        38.08025        -1.28087
C         35.26949        40.22577        -1.26955
C         34.06426        39.48611        -1.30993
C         35.24265        41.68740        -1.27311
C         34.04856        42.38775        -1.32654
C         35.27235        44.59574        -1.20729
C         34.01945        43.85991        -1.41507
C         35.24210        45.99823        -1.06722
C         33.97532        46.74466        -0.96306
C         35.29632        48.85971        -0.92464
C         34.01634        48.17944        -0.87526
C         35.44103        50.18581        -1.28602
C         33.72128        51.23833        -0.79236
C         35.37384        53.15386        -0.70722
C         34.13540        52.47557        -0.25814
C         35.42341        54.56346        -0.65774
C         37.75089        18.85481        -1.01374
C         36.50948        18.18444        -1.14578
C         37.74789        20.26258        -0.78503
C         36.50376        20.96737        -0.70458
C         37.72722        23.09993        -0.39239
C         36.49787        22.38721        -0.51265
C         37.71991        24.51804        -0.24214
C         36.47924        25.22363        -0.14403
C         37.72099        27.37931        -0.08574
C         36.48243        26.66754        -0.05258
C         37.72261        28.80664        -0.09835
C         36.49020        29.52953        -0.09743
C         37.74662        31.65144        -0.38218
C         36.50195        30.95876        -0.28529
C         37.74280        33.06534        -0.59636
C         36.52242        33.75391        -0.87427
C         37.74760        35.88157        -0.99275
C         36.51115        35.17955        -1.07159
C         37.74045        37.33510        -1.31919
C         36.48023        38.09275        -1.24107
C         37.75223        40.25979        -1.19403
C         36.50076        39.51240        -1.25017
C         37.71617        41.69949        -1.15831
C         36.49578        42.41800        -1.21256
C         37.74071        44.55452        -1.14639
C         36.49272        43.84973        -1.16322
C         37.72986        45.99145        -1.04117
C         36.50323        46.66540        -0.90464
C         37.83395        48.86923        -0.70872
C         36.51760        48.10347        -0.61261
C         37.82662        50.31755        -0.96798
C         36.62057        50.99526        -1.07151
C         37.82573        53.16224        -1.03036
C         36.57520        52.44638        -0.99630
C         37.83388        54.59507        -1.03702
C         36.60111        55.26556        -0.88296
C         40.23478        16.05763        -1.42520
C         39.04281        16.74197        -1.36683
C         40.21968        18.84250        -0.89602
C         39.00049        18.14057        -1.09741
C         40.21585        20.25622        -0.64212
C         38.98029        20.96799        -0.61471
C         40.19182        23.08912        -0.22423
C         38.97376        22.38779        -0.41661
C         40.18288        24.51364        -0.11093
C         38.95204        25.23428        -0.16420
C         40.20282        27.36727        -0.09444
C         38.96077        26.65924        -0.10175
C         40.18446        28.78332        -0.15506
C         38.97002        29.51163        -0.15130
C         40.21438        31.67772        -0.18631
C         38.98206        30.94657        -0.24433
C         40.18207        33.09135        -0.24305
C         38.97011        33.78997        -0.51870
C         40.20048        35.97290        -0.49075
C         38.94494        35.20957        -0.70020
C         40.21838        37.43457        -0.74507
C         39.00846        38.12386        -1.27145
C         40.22789        40.29718        -0.94445
C         38.98229        39.59465        -1.13074
C         40.18733        41.70759        -0.93298
C         38.95818        42.41280        -1.09892
C         40.22718        44.53590        -1.41822
C         38.95250        43.83021        -1.17595
C         40.23160        46.03671        -1.47285
C         38.97346        46.74217        -1.14070
C         40.25303        48.87195        -1.51275
C         39.02911        48.10981        -1.05282
C         40.26951        50.30446        -1.05926
C         39.08135        51.01816        -0.99826
C         40.31721        53.15785        -1.10494
C         39.06875        52.46051        -1.02081
C         40.31546        54.58772        -1.22354
C         39.09077        55.30991        -1.17564
C         40.34432        57.40001        -1.37830
C         39.14216        56.72746        -1.26120
C         42.70585        16.03877        -1.24843
C         41.46710        16.73274        -1.21014
C         42.69021        18.81591        -0.72319
C         41.45769        18.13196        -0.94676
C         42.67168        20.21656        -0.42411
C         41.44532        20.93638        -0.40220
C         42.60946        23.01760         0.25114
C         41.44319        22.36470        -0.15231
C         42.57831        24.46494         0.53929
C         41.39524        25.22830         0.10834
C         42.71866        27.31625         0.12243
C         41.44222        26.63338         0.05216
C         42.76186        28.74198        -0.25816
C         41.44757        29.51050        -0.36679
C         42.71515        31.61749        -0.11773
C         41.47972        30.96983        -0.17379
C         42.74953        33.07725         0.08075
C         41.42930        33.84207        -0.00564
C         42.71190        35.90058        -0.51549
C         41.49473        35.25833        -0.38459
C         42.76692        37.34373        -0.90424
C         41.50375        38.12850        -1.02622
C         42.73068        40.24540        -0.69410
C         41.48926        39.59728        -0.86385
C         42.75312        41.72143        -0.57292
C         41.42610        42.47162        -0.70040
C         42.70457        44.56386        -1.13161
C         41.49547        43.87148        -1.10807
C         42.73471        46.00265        -1.21327
C         41.51691        46.74443        -1.26799
C         42.76616        48.84487        -1.17271
C         41.53010        48.13234        -1.21652
C         42.79032        50.25874        -1.12889
C         41.55138        50.99784        -0.71748
C         42.78848        53.12619        -1.25029
C         41.54875        52.45558        -1.08920
C         42.79731        54.55224        -1.35603
C         41.56359        55.27449        -1.33011
C         42.82660        57.37510        -1.50733
C         41.57440        56.69696        -1.40677
C         43.89254        16.70395        -1.03017
C         45.16180        18.81432        -0.57173
C         43.91874        18.10085        -0.76264
C         45.12653        20.22518        -0.32048
C         43.90901        20.88827        -0.17883
C         45.17868        22.98252         0.66097
C         43.86152        22.25645         0.38921
C         45.16539        24.47259         0.89924
C         43.86936        25.23341         0.80692
C         45.19419        27.36414         0.34433
C         43.91362        26.66396         0.42343
C         45.21364        28.79434         0.15855
C         44.00164        29.50533        -0.04356
C         45.21924        31.64950        -0.08326
C         43.97599        30.91443        -0.11769
C         45.23205        33.06538        -0.20724
C         43.99599        33.81043        -0.20221
C         45.23013        35.91705        -0.77431
C         43.95953        35.18562        -0.40281
C         45.18047        37.39574        -0.44738
C         44.01189        38.10161        -0.64962
C         45.22255        40.28647        -0.47431
C         43.95294        39.53601        -0.59660
C         45.23827        41.75299        -0.78980
C         43.96068        42.45863        -0.94518
C         45.20268        44.55636        -1.26157
C         43.96451        43.84274        -1.10184
C         45.21322        45.95086        -1.22681
C         43.97149        46.68790        -1.18490
C         45.22502        48.81132        -1.34441
C         43.99241        48.11127        -1.22035
C         45.21797        50.22719        -1.46114
C         44.00055        50.95796        -1.29830
C         45.26713        53.08255        -1.49733
C         44.02477        52.39586        -1.33832
C         45.26712        54.51788        -1.45405
C         44.04218        55.24871        -1.43452
C         44.00989        56.68057        -1.51519
C         47.61014        18.83769        -0.31272
C         46.40452        18.15212        -0.54723
C         47.66627        20.22043        -0.20241
C         46.40815        21.01330        -0.46349
C         47.64623        23.09461         0.17620
C         46.42210        22.36818         0.18241
C         47.66778        24.47944         0.41598
C         46.43446        25.22257         0.72429
C         47.67456        27.37865         0.44264
C         46.41605        26.68687         0.48673
C         47.68549        28.80577         0.29923
C         46.45210        29.50898         0.17126
C         47.69718        31.64008         0.05251
C         46.45597        30.93469         0.03480
C         47.70597        33.06385        -0.07159
C         46.47704        33.77762        -0.22498
C         47.69659        35.88722        -0.21935
C         46.48369        35.19800        -0.32350
C         47.71474        37.36891        -0.10175
C         46.42911        38.12770        -0.16492
C         47.71332        40.21065        -0.65705
C         46.51058        39.55688        -0.51596
C         47.75738        41.60482        -1.18153
C         46.47738        42.35346        -1.37556
C         47.74560        44.56459        -1.32815
C         46.46343        43.84939        -1.71396
C         47.72657        45.94570        -1.25575
C         46.46244        46.66671        -1.26118
C         47.69698        48.77045        -1.54964
C         46.45827        48.06309        -1.33227
C         47.56913        50.08100        -2.01204
C         46.43603        50.93352        -1.76249
C         47.81094        53.11604        -1.92640
C         46.48854        52.34915        -1.71626
C         47.71203        54.56841        -1.55635
C         46.53602        55.20933        -1.40333
C         50.17618        20.28001        -0.17411
C         48.90929        20.95305        -0.10459
C         50.16258        23.08944        -0.06830
C         48.88922        22.35413        -0.01408
C         50.15092        24.54795         0.27692
C         48.91169        25.19045         0.84579
C         50.14697        27.37393         0.52891
C         48.90476        26.68155         0.55631
C         50.15789        28.80498         0.44026
C         48.92651        29.51356         0.31756
C         50.17808        31.64545         0.26180
C         48.93598        30.93851         0.20554
C         50.20368        33.06992         0.08693
C         48.94581        33.77098        -0.08041
C         50.17963        35.91642        -0.31528
C         48.91681        35.17743        -0.14973
C         50.18755        37.38647        -0.07652
C         48.95194        38.13134        -0.32141
C         50.23833        40.23084        -0.62889
C         48.97650        39.50088        -0.52348
C         50.20136        41.66861        -0.89802
C         49.03567        42.34808        -1.15393
C         50.22494        44.58147        -0.94338
C         49.05584        43.82865        -1.55721
C         50.18740        45.98733        -0.88057
C         48.96570        46.71876        -1.16342
C         50.32077        48.85503        -1.27943
C         48.96835        48.10266        -1.32926
C         50.23344        50.32635        -0.88194
C         49.36843        51.17257        -1.57566
C         49.68466        52.98817        -0.08294
C         48.97772        52.45428        -1.17215
C         51.38215        20.95177        -0.16878
C         52.68277        23.07303        -0.02716
C         51.45068        22.36372        -0.08689
C         52.71494        24.46823         0.47064
C         51.42089        25.21494         0.68865
C         52.63174        27.37283         0.63057
C         51.40137        26.68331         0.62534
C         52.62579        28.80610         0.64392
C         51.39606        29.51519         0.52841
C         52.63406        31.66313         0.65482
C         51.40057        30.94685         0.47622
C         52.65436        33.10055         0.47053
C         51.43548        33.75569         0.12393
C         52.73272        35.97834        -0.02315
C         51.48599        35.18865        -0.20974
C         52.73013        37.33836        -0.19430
C         51.48006        38.12222        -0.11988
C         52.72322        40.24265        -0.35136
C         51.45905        39.56391        -0.44884
C         52.74929        41.71203        -0.49999
C         51.47774        42.43342        -0.86209
C         52.54777        44.57216        -0.10601
C         51.40911        43.88955        -0.61364
C         52.49900        45.99364         0.01867
C         51.34680        46.71142        -0.44097
C         52.35376        48.82750         0.27403
C         51.33254        48.12290        -0.42014
C         52.21990        50.22102         0.57993
C         51.04581        50.94295         0.09886
C         50.74136        52.26899         0.48482
C         55.10937        23.23828        -0.33038
C         53.91910        22.50325        -0.38028
C         55.14693        24.59888         0.01785
C         53.94382        25.26880         0.33690
C         55.11993        27.40906         0.68980
C         53.88773        26.66926         0.54566
C         55.07023        28.80079         0.97452
C         53.85453        29.51654         0.83850
C         55.05550        31.66979         1.24986
C         53.82263        30.94690         0.91296
C         55.07616        33.19802         1.04928
C         53.86744        33.84242         0.53288
C         55.17067        35.94553         0.41689
C         53.96249        35.24261         0.25154
C         55.09640        37.45105         0.55759
C         54.03275        38.08517        -0.33792
C         55.07852        40.30407         0.35518
C         53.91142        39.57301        -0.07361
C         54.96498        41.71278         0.57495
C         53.84081        42.44558         0.16568
C         54.81676        44.60167         0.87259
C         53.73582        43.86544         0.31962
C         54.78686        46.01034         0.94978
C         53.61094        46.71473         0.53695
C         54.60198        48.83859         1.32820
C         53.52126        48.12471         0.72267
C         54.42870        50.20566         1.60937
C         53.24911        50.87079         1.27142
C         57.68014        24.63098         0.26573
C         56.43015        25.39177        -0.10206
C         57.59564        27.42809         0.83364
C         56.36441        26.74172         0.57265
C         57.59841        28.80408         1.17030
C         56.30137        29.48022         1.51761
C         57.54538        31.64122         1.25847
C         56.33849        30.95845         1.25066
C         57.58770        33.08505         0.95280
C         56.36772        33.86684         0.86299
C         57.64469        35.98522         0.88373
C         56.40877        35.26108         0.66555
C         57.68857        37.44959         0.67427
C         56.40037        38.19284         0.37064
C         57.48670        40.35410         1.01549
C         56.31656        39.64628         0.61060
C         57.39865        41.74986         1.31255
C         56.07062        42.38771         1.27095
C         57.22896        44.63698         1.66356
C         55.98147        43.89268         1.43203
C         57.15207        46.05356         1.73669
C         55.92242        46.74156         1.45182
C         57.00806        48.85060         2.04551
C         55.84564        48.14397         1.62331
C         58.81674        25.28478         0.59320
C         60.03889        27.42156         0.99273
C         58.83652        26.72236         0.77740
C         60.03557        28.79144         1.22389
C         58.81537        29.50920         1.32767
C         59.92278        31.70708         1.89383
C         58.79170        30.95549         1.46997
C         59.93889        33.08577         1.94230
C         58.91530        33.86919         1.26250
C         59.92314        36.12650         1.75498
C         58.80748        35.34509         1.34032
C         59.91200        37.51234         1.72127
C         58.81483        38.23578         1.19963
C         59.85453        40.44972         1.63932
C         58.72991        39.66249         1.25192
C         59.76568        41.80901         1.82993
C         58.52419        42.50152         1.70421
C         59.58406        44.72255         2.25188
C         58.43916        43.94967         1.89529
C         59.51604        46.09252         2.38029
C         58.30476        46.79308         2.12713
C         58.20343        48.20313         2.27321
O         55.65161        42.98787         2.55149
O         50.09762        24.19894        -1.11634
O         50.88667        35.50840        -1.53540
O         30.47354        49.00768        -0.67437
O         45.32962        41.30122         0.61423
O         32.51466        40.92658        -2.62710
O         33.94147        25.84087         1.39973
O         31.20641        30.59460         1.00731
O         26.29211        34.79213        -1.56783
O         24.48382        39.15657        -0.08791
O         58.57919        33.39127        -0.07348
O         52.09817        24.60912         1.82101
O         38.52123        37.62460        -2.55578
O         48.68757        50.61233        -2.68206
O         42.05178        42.22870         0.61109
O         33.99254        30.55503         1.22814
O         27.25583        41.31916         3.24899
O         28.26252        26.76509        -1.66050
O         42.15669        29.03361        -1.56940
O         52.46473        42.10184        -1.90248
O         34.37462        50.80471        -1.95887
O         57.26421        37.80163        -0.71488
O         42.97854        24.88656         1.90504
O         30.74347        24.91998        -1.65158
O         37.23696        48.50426         0.59851
O         28.49056        47.75606         0.18747
O         33.19880        44.33746        -2.54211
O         50.81486        37.80892         1.19039
O         40.06324        36.97914         0.63200
O         26.34340        43.37185         4.26376
O         42.18420        37.62213        -2.23744
O         54.90455        32.59499         2.38725
O         42.05622        33.53272         1.28930
O         45.92573        24.86323         2.10158
O         47.03091        37.80218         1.14663
O         47.02688        41.59970        -2.50576
O         40.20586        45.26387        -2.72043
O         44.47777        22.25870         1.73728
O         30.79064        33.46164        -2.56874
O         29.66522        45.24431        -1.50319
O         23.55016        29.36037        -1.51379
H         23.54929        28.39799        -1.70451
O         48.99900        25.03987         2.29629
H         48.09417        25.15027         2.66532
O         45.30304        35.86554        -2.24946
H         44.47133        36.25150        -2.60264
O         54.72831        37.70006         1.94089
H         53.83261        37.32976         2.09584
O         29.30667        25.45448         1.59308
H         29.22917        24.59536         2.05911
O         41.60364        50.98866         0.77686
H         40.81885        51.48500         1.09566
O         30.44317        30.96011        -2.47438
H         30.61083        31.71695        -3.08773
O         56.16876        29.34684         2.99146
H         56.92188        29.82807         3.39616
O         32.56360        37.42515        -3.00451
H         32.49029        38.37222        -3.25520
O         49.27575        43.85517        -3.00405
H         48.39094        43.90669        -3.43575
O         50.85483        48.80498        -2.63822
H         50.21604        49.28826        -3.20936
O         56.55866        25.69027        -1.54728
H         57.37994        26.21515        -1.66156
O         54.47971        37.93564        -1.70807
H         53.84545        38.39368        -2.29773
O         46.45901        21.30775        -1.93374
H         46.59687        20.44928        -2.39003
O         34.17233        33.51068        -2.89817
H         33.43929        34.01726        -3.31144
O         27.10668        44.34633         0.20024
H         27.45911        44.71341        -0.64204
O         25.75452        37.03781         2.55967
H         26.57098        36.52549         2.73691
O         46.41219        43.94496        -3.18533
H         46.52762        43.02887        -3.53694
O         48.11428        53.11219        -3.34585
H         48.26830        52.17578        -3.61190
O         40.15812        48.93541        -2.98382
H         40.19977        48.01447        -3.32294
H         22.11638        27.04786         1.52350
H         21.99294        29.42725         0.97509
H         21.93275        31.28930         0.38663
H         22.02089        33.71111         0.62075
H         22.15069        35.54725         1.09342
H         22.22445        37.97822         1.27833
H         22.41550        40.11318         1.40984
H         22.67260        42.01565         2.93442
H         23.01061        43.72239         4.28160
H         23.57482        45.98116         4.80487
H         25.26206        23.52359         0.80620
H         23.22020        24.85035         1.21580
H         26.72496        49.29625         4.18846
H         24.84275        47.89267         4.98197
H         26.87822        22.50159         0.13731
H         29.04130        49.72433         4.32863
H         28.97683        21.27580         0.04681
H         30.95047        51.01304         3.47807
H         32.76212        19.17718        -0.85395
H         30.64188        20.34042        -0.60975
H         33.64448        53.91282         1.30410
H         31.75201        52.58767         2.17895
H         34.38180        18.28915        -1.13374
H         34.49791        55.12259        -0.46023
H         36.48143        17.10224        -1.32548
H         36.56436        56.36307        -0.88083
H         40.24427        14.97822        -1.63379
H         38.11080        16.18725        -1.53563
H         40.35398        58.49748        -1.44581
H         38.21243        57.31176        -1.24036
H         42.70762        14.95880        -1.45449
H         42.83187        58.47246        -1.57854
H         44.83108        16.13550        -1.07026
H         44.94811        57.24371        -1.60363
H         48.52588        18.23757        -0.21857
H         46.45089        17.06171        -0.66151
H         48.65164        55.13939        -1.53002
H         46.54585        56.29017        -1.20641
H         50.19577        19.18392        -0.23295
H         49.43638        53.98529         0.30772
H         52.31237        20.36730        -0.19716
H         51.32687        52.74596         1.28264
H         56.03663        22.73483        -0.63671
H         53.95870        21.46573        -0.74044
H         55.22184        50.77411         2.11267
H         53.15494        51.93636         1.52147
H         57.69870        23.53882         0.14160
H         56.96759        49.94110         2.16945
H         59.75115        24.72812         0.76173
H         60.99248        26.87547         0.95267
H         60.99110        29.32246         1.33358
H         60.78606        31.16224         2.30419
H         60.74260        33.59986         2.48768
H         60.82264        35.61568         2.12518
H         60.79090        38.04819         2.10447
H         60.83140        39.96617         1.77435
H         60.67553        42.35706         2.10709
H         60.54218        44.22452         2.45048
H         60.40778        46.66102         2.68142
H         59.09127        48.77549         2.57832
