         349
 CSIRO Nanostructure Databank - Neutral Graphene Oxide Data Set
C          1.59974         3.47762         0.21430
C          0.58416         4.07723         0.92393
C          1.43758         6.31213         0.44022
C          0.51665         5.48431         1.07369
C          1.36897         7.77479         0.54443
C          0.36356         8.46726         1.26028
C          1.29483        10.65143         0.63852
C          0.32107         9.85711         1.29325
C          1.23763        12.12108         0.57900
C          0.14333        12.86369         1.11386
C          1.18291        15.02985         0.60057
C          0.13701        14.25327         1.14549
C          1.21356        16.44723         0.59879
C          0.08917        17.23081         1.07601
C          1.11588        19.28638         0.20661
C          0.03298        18.57146         0.90570
C          1.13955        20.79077         0.12248
C          0.14620        21.63734         0.84152
C          1.06118        23.54235        -0.41959
C          0.14359        22.96172         0.63842
C          1.11616        25.05551        -0.41595
C         -0.05503        25.79834        -0.36243
C          1.12013        27.93160        -0.57527
C         -0.05017        27.22311        -0.39771
C          1.18631        29.37000        -0.60013
C          3.77833         3.54635        -0.84655
C          2.63393         4.24703        -0.41636
C          3.25223         6.53494        -1.16963
C          2.45876         5.69646        -0.39147
C          3.33899         7.94191        -0.94969
C          2.35306         8.57167        -0.09283
C          3.38332        10.75702        -0.80859
C          2.34482         9.98034        -0.01596
C          3.51795        12.17340        -0.36037
C          2.31816        12.83516         0.04508
C          3.61330        14.97762        -0.04070
C          2.26210        14.31514        -0.16926
C          3.61343        16.38671        -0.03830
C          2.37848        17.13909         0.14307
C          3.58083        19.27351        -0.24051
C          2.39541        18.55863         0.02805
C          3.61659        20.69915        -0.34744
C          2.42906        21.46032        -0.18724
C          3.61726        23.57086        -0.55034
C          2.41944        22.85971        -0.34540
C          3.57067        25.00198        -0.63313
C          2.37249        25.71456        -0.57147
C          3.61357        27.92081        -0.48803
C          2.38164        27.18465        -0.93192
C          3.64097        29.31117        -0.50625
C          2.38201        30.03111        -0.64524
C          6.23700         3.30764        -1.04009
C          5.06580         4.05712        -1.23063
C          6.39340         6.09931        -1.71588
C          5.19941         5.41594        -1.71287
C          6.48201         7.55448        -1.71585
C          4.45376         8.66564        -1.36309
C          5.95074        10.53220        -0.69075
C          4.69737        10.00916        -0.91538
C          5.97183        11.96776        -0.29772
C          4.74529        12.80934        -0.41042
C          6.06910        14.93666        -0.14813
C          4.82299        14.25123        -0.19083
C          6.05268        16.35320        -0.06953
C          4.83908        17.06861        -0.14203
C          6.11105        19.26270        -0.41372
C          4.82369        18.50176        -0.61051
C          6.07506        20.67459        -0.64210
C          4.86571        21.39745        -0.60523
C          6.08212        23.55462        -0.76471
C          4.87592        22.85070        -0.66700
C          6.12659        25.03426        -0.71978
C          4.83508        25.77278        -0.70487
C          6.10781        27.86292        -0.04755
C          4.79186        27.12918        -0.02644
C          6.11435        29.31440        -0.16826
C          4.87950        29.99429        -0.35711
C          8.72606         3.20901        -0.93617
C          7.53544         3.89331        -1.15669
C          8.84605         6.12620        -1.13965
C          7.61837         5.33357        -1.48767
C          8.87328         7.67413        -1.05176
C          7.45671         8.29627        -1.09534
C          8.58556        10.42701        -0.38423
C          7.21488         9.65342        -0.38259
C          8.51224        11.91297        -0.11259
C          7.27385        12.68393        -0.15502
C          8.65043        14.80122        -0.38119
C          7.30110        14.14127        -0.62225
C          8.87126        16.15957        -0.96811
C          7.22300        17.20253         0.30699
C          8.60009        19.24546        -0.39338
C          7.31143        18.58078        -0.25366
C          8.61587        20.61830        -0.63455
C          7.35858        21.33834        -0.90097
C          8.63626        23.63816        -0.74713
C          7.35554        22.87686        -0.99725
C          8.53010        25.00090        -0.15241
C          7.35249        25.70797        -0.21092
C          8.49938        27.86706         0.47908
C          7.28107        27.13725         0.08682
C          8.55815        29.40667         0.24969
C          7.33200        30.01567        -0.23531
C         11.20851         3.23708        -0.62883
C          9.97708         3.90450        -0.77382
C         11.08383         6.02184        -0.18100
C          9.96630         5.33060        -0.63501
C         10.94186         7.39981         0.28183
C          9.84184         8.20404         0.01476
C         10.97751        10.49412         0.54003
C          9.66290         9.67744         0.50651
C         11.00182        11.96110         0.26234
C          9.66840        12.65179         0.48108
C         10.88991        14.87024         0.66623
C          9.71389        14.12501         0.13463
C         10.91027        16.35238         0.56231
C         10.05445        17.01430        -0.49872
C         11.02689        19.20223         0.00860
C          9.85500        18.51123        -0.22790
C         11.13912        20.61875        -0.34247
C          9.89101        21.35664        -0.77258
C         11.12017        23.46479        -0.00978
C          9.92504        22.86289        -0.66093
C         11.05030        24.85085         0.45487
C          9.74532        25.60646         0.44093
C         11.06008        27.83626         0.53770
C          9.78776        27.11279         0.62234
C         11.07300        29.23743         0.29656
C          9.89226        29.97815         0.09625
C         13.69186         3.34242        -0.40423
C         12.40656         3.95826        -0.39992
C         13.52946         6.11876         0.09137
C         12.33822         5.35812        -0.11641
C         13.41430         7.47107         0.58966
C         12.14261         7.85605         0.95866
C         13.44642        10.56607         1.11073
C         12.09234        10.01118         1.15367
C         13.40791        12.05997         1.34613
C         12.23066        12.71765         0.64178
C         13.37910        14.87606         0.85812
C         12.19265        14.19515         0.84150
C         13.51361        16.37808         1.09041
C         12.17407        17.09787         0.90765
C         13.59677        19.22791         0.65579
C         12.21931        18.55546         0.62424
C         13.54843        20.65350         0.19344
C         12.37981        21.34946         0.00046
C         13.57612        23.50833         0.31537
C         12.33846        22.79651         0.08044
C         13.61415        24.88617         0.32707
C         12.35679        25.62120         0.54090
C         13.57287        27.80083         0.82917
C         12.34838        27.09719         0.22542
C         13.57166        29.25447         0.37896
C         12.36151        29.89929         0.17432
C         16.14466         3.42370        -0.18922
C         14.85720         4.08729        -0.22248
C         15.98930         6.29499         0.24859
C         14.79009         5.50838        -0.00293
C         15.93127         7.63198         0.57585
C         14.62314         8.39425         0.41353
C         15.90816        10.55185         1.06411
C         14.59327         9.82872         0.97146
C         15.92919        12.06681         1.04295
C         14.65504        12.77595         0.93954
C         15.78448        14.78308         0.12657
C         14.62764        14.11984         0.72276
C         15.44783        16.08811        -0.41381
C         14.57495        16.98251         0.16246
C         15.91510        19.12426        -0.27413
C         14.72027        18.42244         0.00410
C         15.97637        20.56427         0.06745
C         14.83250        21.30114         0.26890
C         16.09732        23.44226         0.11462
C         14.84337        22.75373         0.68261
C         16.07974        24.92998         0.38269
C         14.87929        25.62071         0.42306
C         16.06696        27.78383         0.44185
C         14.86745        27.06104         0.53994
C         16.03813        29.23642         0.31483
C         14.81409        29.92411         0.24942
C         18.60111         3.46607        -0.05296
C         17.31211         4.12296        -0.06085
C         18.54141         6.27014         0.35524
C         17.29063         5.62930        -0.16188
C         18.51258         7.67833         0.77620
C         17.18116         8.38753         0.88908
C         18.38881        10.55662         0.63961
C         17.19713         9.86359         0.79230
C         18.43490        12.05101         0.55549
C         17.17497        12.84707         0.70780
C         18.22629        14.74244        -0.76288
C         17.03113        14.19239         0.05677
C         18.35620        16.27718        -0.79537
C         17.26804        17.08749        -1.03298
C         18.39167        19.18189        -0.71430
C         17.18222        18.49825        -0.70806
C         18.41544        20.65400        -0.51616
C         17.34032        21.17037         0.41912
C         18.60097        23.49794         0.15661
C         17.36839        22.74853         0.68006
C         18.60245        24.90725         0.24916
C         17.36604        25.63487         0.73336
C         18.51473        27.80871         0.19215
C         17.32400        27.10093         0.38454
C         18.48624        29.25287         0.12023
C         17.26475        29.93159         0.18508
C         19.76111         4.17371         0.03153
C         20.97440         6.35158         0.42448
C         19.74648         5.60839         0.26321
C         20.96789         7.71985         0.49139
C         19.74472         8.46757         0.59341
C         20.85711        10.64985         0.30965
C         19.66679         9.86611         0.53246
C         20.84397        11.98501         0.02624
C         19.61903        12.73686        -0.03453
C         20.78857        14.82176        -0.55222
C         19.55685        14.07532        -0.40047
C         20.86646        16.15422        -0.78789
C         19.64969        16.94262        -1.00957
C         20.91034        19.24769        -0.92035
C         19.64365        18.49763        -1.08339
C         20.94406        20.58171        -0.75282
C         19.71041        21.39039        -0.65023
C         20.93302        23.57101        -0.52492
C         19.77111        22.82725        -0.25772
C         20.94575        24.95234        -0.38743
C         19.77889        25.64897        -0.01552
C         20.94036        27.86289        -0.03604
C         19.77482        27.11464         0.06495
C         20.91107        29.28041        -0.05352
C         19.71983        29.96495         0.00038
O          5.33476         8.13472        -2.27489
O         11.88020        18.04120         1.97479
O         18.12313        12.76924         1.82191
O         10.79333        20.82162        -1.78408
O          9.52800        26.19188         1.75920
O          4.03729         6.02782        -2.19972
O         11.71236        25.12720         1.73582
O         18.73817        21.29760        -1.78340
O         16.11942        16.48113        -1.56706
O         11.92550        12.39228        -0.77623
O          6.50950        12.29509         1.08211
O         11.96939         8.84762         1.91719
O          7.97689        16.84721         1.21579
O         17.85692         7.87862         2.10001
O          9.55464        23.58667        -1.89222
O          0.61951        20.00411        -1.00747
O         17.40416        22.94877         2.08216
O          7.38267        22.05495        -2.19197
O         19.63430        17.68132        -2.29510
O          8.25206        16.49952        -1.97946
O         10.36701        15.74618         1.75341
O          8.31659        28.77097         1.57533
O          5.57990        25.68940        -1.94627
O         15.99560        11.34076         2.31956
O          8.60516         5.67811        -2.53783
O         12.48228        27.14694        -1.22719
H         12.60040        28.08652        -1.48877
O          2.42990        27.20598        -2.41081
H          1.67177        26.67256        -2.73306
O         10.93133        16.97566        -1.67112
H         10.41720        17.31824        -2.43607
O          9.18302         9.64030         1.86407
H          9.92876         9.33183         2.42548
O          4.74821        18.35690        -2.08073
H          4.69596        19.25800        -2.46660
O         17.33320         5.89492        -1.62670
H         16.71981         5.25828        -2.05357
O          4.53788        26.80865         1.39102
H          4.63897        27.63556         1.90944
O          7.12064        14.03617        -2.05970
H          7.29582        14.93476        -2.43773
O          9.47407        12.56766         1.93185
H          8.55663        12.85337         2.13677
O          9.03019        10.43807        -1.76509
H          9.98945        10.64154        -1.79851
O         13.20610        12.27457         2.76809
H         14.04738        12.02144         3.21227
O          9.50981         8.07372        -2.30333
H          9.18450         7.45103        -2.99568
O         16.12470        23.27044        -1.31962
H         15.35436        23.73525        -1.70856
O          0.48943        23.18527        -1.71521
H          0.43629        22.20500        -1.76376
O         13.94897        16.56369         2.45921
H         13.16253        16.47750         3.04077
O          6.89656         9.25506         0.97272
H          6.96669        10.04951         1.54902
O         14.57106         8.68530        -1.03904
H         14.69108         7.83561        -1.51675
O         17.94853        14.30966        -2.13061
H         17.26751        14.92187        -2.49140
O         17.38526        25.59325         2.20121
H         17.42524        24.61161         2.42817
O         17.69079        20.54072         1.67359
H         17.62098        21.27366         2.35085
O         14.84854        22.81154         2.12013
H         15.79992        22.73481         2.42792
O         13.40798        27.78015         2.26599
H         14.25286        28.05016         2.68188
O          2.84859        10.86607        -2.17349
H          2.74141         9.95721        -2.52853
O         13.99679        19.35291         2.04767
H         14.07236        18.43848         2.41855
O          1.88901        14.47705        -1.59408
H          2.45392        13.86742        -2.11729
H          1.65642         2.38037         0.16404
H         -0.17724         3.45505         1.41509
H         -0.28728         5.91077         1.68839
H         -0.42229         7.90691         1.78559
H         -0.49815        10.34240         1.84189
H         -0.70648        12.32724         1.55781
H         -0.70967        14.75192         1.63862
H         -0.75709        16.71467         1.54983
H         -0.86431        19.13035         1.20638
H         -0.55285        21.17016         1.55099
H         -0.56457        23.61509         1.17025
H         -1.01980        25.28096        -0.26535
H         -1.00122        27.76047        -0.26507
H          0.24433        29.93835        -0.56756
H          3.75676         2.46220        -0.64296
H          2.40864        31.12993        -0.67335
H          6.15814         2.26500        -0.69768
H          4.89101        31.09184        -0.43253
H          8.70952         2.11841        -0.79269
H          7.34451        31.05558        -0.59170
H         11.25258         2.14557        -0.75758
H          9.97529        31.01763        -0.25404
H         13.76681         2.25746        -0.56994
H         12.36321        30.97456        -0.06244
H         16.16471         2.32462        -0.25079
H         14.81887        31.00223         0.02802
H         18.62238         2.36850        -0.12758
H         17.25209        31.03019         0.12915
H         20.73169         3.65763         0.00481
H         21.92896         5.80752         0.38475
H         21.93006         8.24968         0.49786
H         21.82656        10.13462         0.30180
H         21.80038        12.46458        -0.21865
H         21.73516        14.28733        -0.39588
H         21.84904        16.63736        -0.87750
H         21.85311        18.68804        -1.00466
H         21.91565        21.08342        -0.63396
H         21.84499        23.06346        -0.86770
H         21.87313        25.49639        -0.61001
H         21.91741        27.36749        -0.11154
H         21.85932        29.83059        -0.13288
H         19.70077        31.06341        -0.03916
