         273
 CSIRO Nanostructure Databank - Neutral Graphene Oxide Data Set
C        -11.02890         0.64598         0.94879
C         -9.95584         1.48353         0.32539
C         -8.84166         0.76954        -0.37260
C         -7.53954         1.53232        -0.63087
C         -6.24323         0.81845        -0.52966
C         -5.13537         1.45500         0.31323
C         -3.77552         0.75853         0.24363
C         -2.58455         1.42485         0.26334
C         -1.29453         0.67633         0.32120
C         -0.01544         1.37104        -0.05586
C          1.21173         0.55255        -0.36102
C          2.51400         1.28449        -0.39955
C          3.79501         0.52270        -0.04045
C          4.89583         1.44808         0.58539
C          6.28634         0.69054         0.50489
C          7.44119         1.57576         0.94429
C          8.83801         0.92050         0.94608
C          9.63085         1.46964        -0.25481
C         10.93085         0.72065        -0.40645
C         -9.81631         2.91551         0.83113
C         -8.68170         3.73428         0.22645
C         -7.54791         3.03167        -0.45074
C         -6.20310         3.71693        -0.38082
C         -4.98821         2.92534        -0.03067
C         -3.79846         3.67446         0.54370
C         -2.48061         2.91386         0.42263
C         -1.16604         3.61848         0.13893
C         -0.12782         2.78328        -0.64178
C          1.21576         3.51197        -0.78470
C          2.51873         2.79943        -0.52220
C          3.70615         3.56700        -0.11269
C          4.92112         2.91418         0.13607
C          6.10115         3.65995         0.29350
C          7.38544         3.03412         0.62393
C          8.62104         3.74692         0.18796
C          9.73090         2.98457        -0.14763
C         -8.64032         5.07168         0.46445
C         -7.50271         5.94813         0.07411
C         -6.21168         5.21364        -0.26392
C         -4.95232         5.89772         0.03465
C         -3.72746         5.07436        -0.04592
C         -2.41496         5.79355         0.05627
C         -1.10108         5.10973         0.04958
C          0.03840         5.80109        -0.27894
C          1.14581         5.03049        -0.97574
C          2.52554         5.66109        -0.78725
C          3.45975         5.02703         0.22957
C          4.74642         5.83153         0.43482
C          6.06763         5.13115         0.40245
C          7.32211         5.89428         0.14720
C          8.53566         5.15728        -0.00421
C         -7.35580         7.35500         0.50910
C         -6.14963         8.01631         0.40911
C         -4.91625         7.27223         0.20333
C         -3.64897         7.92018         0.49363
C         -2.53199         7.15046         0.54607
C         -0.66106         8.17943         0.13231
C          0.11382         7.26188        -0.54440
C          1.17682         7.64688        -1.54602
C          2.56024         7.10013        -1.13882
C          3.60037         7.98768        -0.50125
C          4.71559         7.32897         0.24625
C          6.03277         8.05427         0.53160
C          7.24685         7.27477         0.04927
C         -5.99408         9.46245         0.59857
C         -4.80391        10.09289         0.71938
C         -3.48752         9.37020         0.90440
C         -2.27648        10.06072         0.22969
C         -1.02350         9.59462        -0.06610
C          0.03900        10.58704        -0.57014
C          1.44036        10.11153        -0.21478
C          2.45900        10.14758        -1.11799
C          3.77748         9.37147        -1.13827
C          4.98461        10.08831        -0.57325
C          5.99697         9.49242         0.06903
C        -10.90179        -0.67857         1.11646
C         -9.58169        -1.37652         0.86753
C         -8.88815        -0.77389        -0.42444
C         -7.52107        -1.42788        -0.55643
C         -6.22717        -0.61926        -0.69974
C         -5.02632        -1.41268        -0.26411
C         -3.82600        -0.72741         0.30671
C         -2.57570        -1.54817         0.61010
C         -1.29759        -0.80183         0.31227
C         -0.12810        -1.49255         0.33024
C          1.22888        -0.94091        -0.03733
C          2.29943        -1.35945         0.97467
C          3.59408        -0.60890         0.99006
C          4.86759        -1.29918         1.48516
C          6.18335        -0.48804         1.51607
C          7.46931        -1.34122         1.31068
C          8.76185        -0.62486         1.03290
C          9.92760        -1.45227         0.45291
C         11.01093        -0.59586        -0.16906
C         -9.69618        -2.86416         0.61745
C         -8.60320        -3.61319         0.22258
C         -7.27708        -2.83763         0.10697
C         -6.23120        -3.56630        -0.73254
C         -4.91474        -2.79767        -0.90654
C         -3.69909        -3.58260        -0.47763
C         -2.58496        -2.94344        -0.00449
C         -1.33709        -3.67047         0.16006
C         -0.11073        -2.93882         0.44007
C          1.10366        -3.56127         0.64404
C          2.28571        -2.84807         1.21798
C          3.59851        -3.57343         1.43084
C          4.89301        -2.80538         1.64534
C          6.27770        -3.56627         1.68754
C          7.33584        -2.77289         0.94001
C          8.30431        -3.38776         0.14861
C          9.37836        -2.53153        -0.52893
C         -8.55729        -5.02984         0.16307
C         -7.43566        -5.78925        -0.29962
C         -6.26564        -5.04907        -0.87294
C         -4.96720        -5.79632        -1.23256
C         -3.67344        -5.02042        -0.87893
C         -2.45010        -5.81002        -0.48651
C         -1.32815        -5.03980         0.07269
C         -0.05169        -5.74782         0.09667
C          1.19910        -4.98288         0.34194
C          2.47775        -5.71544         0.53702
C          3.70038        -4.98565         0.94444
C          4.92457        -5.82808         1.15563
C          6.21868        -5.06500         1.27144
C          7.36669        -5.67767         0.53293
C          8.34185        -4.79040        -0.01548
C         -7.42658        -7.17149        -0.29192
C         -6.29530        -7.94334        -0.95118
C         -4.96978        -7.21222        -0.57891
C         -3.66645        -8.04252        -0.82873
C         -2.47696        -7.27669        -0.23110
C         -1.36776        -7.84178         0.34319
C         -0.07610        -7.17647         0.43305
C          1.08615        -7.83253         0.69911
C          2.44477        -7.20634         0.85540
C          3.63600        -7.95055         0.23438
C          4.92997        -7.20467         0.48746
C          6.24381        -7.96796         0.62543
C          7.36796        -7.02860         0.22384
C         -6.24208        -9.42811        -0.66483
C         -5.10468       -10.12851        -0.56544
C         -3.76831        -9.49258        -0.24452
C         -2.55724       -10.31690        -0.72226
C         -1.31771       -10.08843        -0.20383
C          0.02835       -10.53868        -0.57821
C          1.17985       -10.01982        -0.01920
C          2.57688       -10.23727        -0.38170
C          3.65802        -9.41492        -0.10873
C          5.00150        -9.89134        -0.45201
C          6.16063        -9.24757        -0.17703
O          2.65411        -3.37566         2.52736
O          3.37989        -5.14545        -0.47392
O         -6.84244        -2.72316         1.41378
O          5.64445        -5.82167         2.41127
O          1.06209        -9.17121         1.11185
O          4.71322        -1.92491         2.78783
O         -4.89642        -1.25563         1.18287
O          3.13073         6.08961        -2.04420
O         -1.39319         7.63794         1.21496
O         -2.65860        -5.36072        -1.88444
O          5.39192         5.49366         1.70528
O          3.57420         7.94456         0.95575
O          7.28978         2.50016         2.02480
O          4.62573         1.57341         1.93646
O          0.76704        -5.33100        -1.04866
O          8.44188        -1.07085         2.38806
O         -1.31915        -9.14411         0.85814
O          4.35045        -7.24762        -0.83507
O          2.05920         3.09765        -1.90532
O          2.58544        -0.41499         2.02172
O         -3.01023         5.41988        -1.26653
O         -1.54487         3.25021         1.50443
O         -7.03659         5.79911        -1.31416
O         -7.75308         2.44747        -1.76941
O          0.76563         5.21268        -2.36599
O         -5.26932         3.23513        -1.41154
O         -6.70666        -4.15821        -1.97089
O          1.87547         0.76333        -1.62337
O         -6.93948        -1.21983        -1.85127
O         -0.34781         1.20372         1.33600
O         -9.94552         1.34810        -1.13376
O         -3.41691        -8.17079        -2.23179
H         -3.34579        -7.26239        -2.61184
O         -8.75774        -1.05332         1.99508
H         -7.98004        -1.70100         2.02687
O         -6.61512        -7.91302        -2.36586
H         -6.12366        -7.16817        -2.79629
O          9.55936         1.35989         2.09710
H          9.07208         1.04270         2.88878
O          0.98730         8.30562        -2.54951
H          1.58879         5.13344        -2.90375
O          2.67712        -7.26525         2.30124
H          2.39895        -8.15504         2.61281
O         -9.58710         2.87313         2.24706
H        -10.10835         2.13781         2.63177
O         -5.01024        -6.96079         0.84235
H         -4.76715        -7.81004         1.29678
O          6.70342        -3.55010         3.05952
H          6.10513        -4.14484         3.56296
O         -3.82834        -9.39582         1.20549
H         -2.90239        -9.39098         1.55169
O          6.23933         0.13706         2.78513
H          5.60642        -0.30679         3.39304
O          2.72568         5.02246         1.47542
H          3.36722         4.79931         2.18809
O         -5.61140         1.35787         1.67893
H         -5.54533         0.40749         1.94498
O         -9.65652        -1.16472        -1.56242
H        -10.08835        -0.35311        -1.92082
O          1.53556         9.66367         1.06287
H          2.44079         9.32751         1.26127
O         10.46977        -3.34220        -0.94678
H         11.02139        -3.49247        -0.14682
O          6.42198        -8.36986         2.00810
H          6.36107        -7.55145         2.55831
O         -0.20259        11.87851        -0.00706
H         -0.00522        11.83155         0.95129
O          6.66649         0.23364        -0.77866
H          5.88557        -0.09283        -1.28789
O         -4.06909         3.87747         1.94896
H         -3.22185         3.76740         2.43891
O         -4.95022        -5.92352        -2.67139
H         -5.22062        -5.04484        -3.03041
O         10.56812        -2.18854         1.51526
H          9.95829        -2.15037         2.29297
O          1.64019        -1.64129        -1.24162
H          0.97747        -1.48231        -1.94678
O         -0.67672         2.62961        -1.96714
H         -0.39810         3.40901        -2.50267
O          4.20306        -0.13841        -1.25786
H          3.38746        -0.21913        -1.82064
O         -3.19594         9.43455         2.32972
H         -2.38923         8.88986         2.47696
O         -2.55422        -1.78122         2.04303
H         -3.48094        -1.97738         2.31509
O          8.87227         1.22103        -1.47109
H          9.43000         1.48153        -2.23334
O          6.20133         8.11022         1.97445
H          6.02441         7.20103         2.31948
O         -4.69718        -2.57647        -2.31959
H         -5.56160        -2.30444        -2.71100
O          4.08389         9.12801        -2.53103
H          3.25926         8.83547        -2.97833
H         11.96201        -1.11889        -0.35310
H         11.79975         1.25666        -0.82136
H         10.63044         3.48651        -0.54055
H          9.44546         5.70730        -0.28971
H          8.17613         7.84171        -0.11778
H          6.85493        10.10255         0.39284
H          5.06380        11.15951        -0.81386
H          2.19496        10.56721        -2.10122
H         -0.04235        10.69074        -1.68178
H         -2.41003        11.14676         0.07054
H         -4.79054        11.18913         0.82502
H         -6.91515        10.06656         0.58264
H         -8.25376         7.89949         0.83987
H         -9.46295         5.53447         1.03261
H        -10.79494         3.44685         0.63220
H        -11.97832         1.14903         1.19455
H        -11.73545        -1.26272         1.53655
H        -10.70373        -3.31238         0.57813
H         -9.38597        -5.58939         0.62825
H         -8.32123        -7.71276         0.05723
H         -7.19557        -9.96705        -0.78672
H         -5.15487       -11.22676        -0.49341
H         -2.69800       -11.00608        -1.56695
H          0.12053       -11.22911        -1.42909
H          2.81037       -11.19662        -0.87486
H          5.05358       -10.86416        -0.96727
H          7.11069        -9.71856        -0.47328
H          8.20564        -7.42763        -0.36976
H          9.16325        -5.21252        -0.61385
H          8.93418        -2.04462        -1.43667
