         404
 CSIRO Nanostructure Databank - Neutral Graphene Oxide Data Set
C          1.16039         2.05076         0.12936
C          1.13933         3.45197         0.07114
C          2.35869         1.35925         0.06908
C          2.32727         4.19777        -0.05100
C          1.10686         6.37170         0.00681
C          1.07743         7.74732        -0.03650
C          2.32328         5.65175        -0.11540
C          2.26181         8.50713        -0.23854
C          1.02596        10.66702        -0.12293
C          1.01709        12.05975        -0.11353
C          2.21534         9.93761        -0.28705
C          2.22751        12.80747        -0.08479
C          1.00431        15.06325        -0.23154
C          1.07732        16.40505        -0.42244
C          2.18038        14.27065         0.17215
C          2.31976        17.14368        -0.35236
C          2.35288        18.52485        -0.68044
C          3.58555         2.06676        -0.05462
C          3.56850         3.49982        -0.11726
C          4.81388         1.37480        -0.11525
C          4.79743         4.21823        -0.24450
C          3.53402         6.37663        -0.29107
C          3.50505         7.80706        -0.38016
C          4.79071         5.65097        -0.34123
C          4.72332         8.55787        -0.56689
C          3.43639        10.71114        -0.70883
C          3.45143        12.13988        -0.21561
C          4.73740         9.95597        -0.56327
C          4.70398        12.84765        -0.17495
C          3.51912        15.02228         0.21967
C          3.53495        16.48035        -0.07735
C          4.72823        14.23116        -0.03204
C          4.75922        17.19287        -0.05947
C          3.54929        19.20822        -0.74523
C          4.79039        18.58970        -0.41111
C          6.03633         2.06707        -0.23084
C          6.02694         3.50888        -0.30029
C          7.26413         1.36788        -0.27480
C          7.26051         4.21174        -0.41528
C          6.00932         6.33666        -0.49496
C          5.97569         7.78942        -0.77749
C          7.25269         5.64125        -0.52345
C          7.27561         8.52636        -0.90907
C          5.95624        10.72083        -0.57838
C          5.95588        12.10107        -0.36333
C          7.28039        10.05687        -0.94155
C          7.20371        12.83076        -0.13667
C          5.99564        14.98987        -0.33018
C          5.97070        16.41507         0.16717
C          7.19400        14.19321         0.11119
C          7.09571        16.98012         0.68091
C          5.99827        19.33855        -0.63062
C          7.21208        19.01277         0.00148
C          8.49777         2.05128        -0.35187
C          8.49243         3.49237        -0.41725
C          9.72578         1.34975        -0.35804
C          9.72836         4.19213        -0.44670
C          8.50459         6.34362        -0.58566
C          8.53107         7.78238        -0.61952
C          9.72796         5.62618        -0.49737
C          9.72082         8.45772        -0.37763
C          8.43035        10.65614        -0.16293
C          8.46865        12.13562        -0.10308
C          9.70426         9.89746        -0.04642
C          9.67402        12.80409         0.01304
C          8.42669        14.84791         0.57085
C          8.42576        16.35391         0.78128
C          9.71304        14.19807         0.32275
C          9.66497        17.09985         0.50968
C          8.53906        19.22529        -0.40027
C          9.69320        18.46488         0.03820
C         10.96584         2.03123        -0.37518
C         10.95698         3.46937        -0.39061
C         12.20395         1.33672        -0.37078
C         12.19783         4.16857        -0.36032
C         10.98283         6.32385        -0.43552
C         10.97208         7.76657        -0.29402
C         12.18702         5.60441        -0.38905
C         12.14310         8.48930        -0.02793
C         10.97707        10.63551         0.02712
C         10.96294        12.10743        -0.31815
C         12.16252         9.93006         0.09031
C         12.17670        12.83997         0.17895
C         10.89718        14.90986         0.55201
C         10.88377        16.36434         0.61940
C         12.15701        14.17054         0.50517
C         12.12133        17.06983         0.60060
C         10.95712        19.06784        -0.15860
C         12.16587        18.43198         0.20019
C         13.44096         2.02013        -0.36513
C         13.41739         3.44702        -0.34957
C         14.69577         1.31116        -0.33478
C         14.69015         4.18364        -0.34372
C         13.46402         6.32786        -0.32414
C         13.43901         7.81573        -0.11735
C         14.67415         5.59356         0.02870
C         14.61629         8.49585         0.50231
C         13.44780        10.62809         0.14156
C         13.44667        12.09830         0.02497
C         14.64423         9.96366         0.33261
C         14.73840        12.81855         0.25840
C         13.40601        14.86151         0.91924
C         13.35516        16.39660         1.02135
C         14.71401        14.23290         0.68671
C         14.64417        17.15486         0.99347
C         13.42784        19.12245         0.11185
C         14.63585        18.53026         0.45405
C         15.94114         1.94749        -0.26613
C         15.98854         3.42692        -0.31475
C         17.18752         1.27816        -0.22646
C         17.22129         4.11144         0.11339
C         15.85218         6.24378         0.57923
C         15.87418         7.73237         0.77222
C         17.17893         5.50518         0.58578
C         17.17524         8.45729         0.79388
C         15.91229        10.63118         0.53047
C         15.94759        12.03589         0.54690
C         17.11596         9.86552         0.75856
C         17.17795        12.77275         0.61369
C         15.92212        14.91724         0.76577
C         15.96474        16.38585         0.95523
C         17.16714        14.22753         0.55967
C         17.18339        17.09974         0.52413
C         15.89667        19.18140         0.27760
C         17.11453        18.50851         0.32485
C         18.41844         1.98304        -0.15225
C         18.41208         3.42041         0.10193
C         19.65728         1.33071        -0.28316
C         19.65245         4.13866         0.31812
C         18.44110         6.27950         0.67073
C         18.41605         7.72639         0.82777
C         19.63310         5.56644         0.58801
C         19.67400         8.42408         0.87988
C         18.35065        10.63566         0.97118
C         18.37176        12.07529         0.66891
C         19.66471         9.89755         1.02437
C         19.62145        12.73630         0.17716
C         18.39202        14.93686         0.47057
C         18.39358        16.37914         0.40056
C         19.63771        14.23101         0.39061
C         19.64008        17.07610         0.24743
C         18.36885        19.28309        -0.02070
C         19.65724        18.50526         0.13962
C         20.88513         2.04315        -0.21390
C         20.84954         3.44535         0.13343
C         22.10759         1.40605        -0.54559
C         22.11686         4.19521         0.08748
C         20.91635         6.24787         1.01686
C         20.90836         7.75075         0.88090
C         22.16010         5.64747         0.40117
C         22.17146         8.43033         0.96723
C         20.90425        10.65537         0.76379
C         20.90243        12.02186         0.52594
C         22.15466         9.91106         1.02520
C         22.11291        12.77049         0.37199
C         20.85312        14.91459         0.32493
C         20.86680        16.35744         0.26425
C         22.10927        14.17833         0.27229
C         22.10274        17.05855         0.18575
C         20.85871        19.18349         0.10215
C         22.11180        18.49194         0.13073
C         23.36959         2.06380        -0.51135
C         23.38063         3.41906         0.11071
C         24.56904         1.46147        -0.85346
C         24.63851         4.17751         0.32832
C         23.45456         6.31850         0.73771
C         23.41362         7.75412         0.94724
C         24.63568         5.62961         0.68151
C         24.69790         8.45578         0.91615
C         23.44021        10.64613         0.81986
C         23.37474        11.99162         0.11859
C         24.68875         9.86580         0.70113
C         24.63203        12.78417         0.30745
C         23.33880        14.91159         0.18572
C         23.34353        16.34253         0.16528
C         24.59773        14.21112         0.20982
C         24.56658        17.07425         0.12499
C         23.33085        19.19253         0.07549
C         24.57530        18.51089         0.07443
C         25.82673         2.22968        -0.95031
C         25.83841         3.65913        -0.39075
C         27.12704         1.56778        -1.10373
C         27.11319         4.30946        -0.08189
C         25.92544         6.22281         1.22972
C         25.94250         7.76382         1.04437
C         27.16420         5.46792         0.68025
C         27.14005         8.55216         1.11329
C         25.87690        10.59350         0.51432
C         25.84554        12.05984         0.35633
C         27.09698         9.92882         0.74799
C         27.04494        12.77197         0.25422
C         25.80033        14.95475         0.20947
C         25.81808        16.38328         0.13108
C         27.05225        14.22069         0.36073
C         27.03240        17.11220         0.02381
C         25.80854        19.21181         0.02119
C         27.05692        18.54150        -0.01451
C         28.33507         2.26772        -1.06249
C         28.31728         3.71084        -0.69694
C         29.58696         1.62352        -1.24733
C         29.65370         4.34686        -0.36403
C         28.45415         5.86731         1.15463
C         28.43322         8.05122         1.54613
C         29.66438         5.38599         0.67534
C         29.66439         8.67237         1.30871
C         28.33684        10.73199         0.74125
C         28.29747        12.05333         0.05981
C         29.66526        10.09863         0.96531
C         29.61672        12.77778        -0.17949
C         28.37727        14.94926         0.24736
C         28.30835        16.39455        -0.11906
C         29.60726        14.23571        -0.10563
C         29.58844        17.17250        -0.11705
C         28.30292        19.26811        -0.05809
C         29.56929        18.64972        -0.04611
C         30.85645         2.24443        -1.01123
C         30.89789         3.58469        -0.52724
C         32.08851         1.54935        -1.13033
C         32.11810         4.23707        -0.24267
C         30.95023         5.88279         1.07022
C         30.94170         8.05423         1.42947
C         32.12530         5.54090         0.41772
C         32.12637         8.58045         0.85701
C         30.91524        10.72857         0.48952
C         30.88901        12.05536         0.06115
C         32.10710         9.94977         0.45186
C         32.13589        12.76772        -0.20489
C         30.83674        14.93982         0.21770
C         30.83237        16.47309         0.31304
C         32.13605        14.30108        -0.10291
C         32.08963        17.18163         0.20741
C         30.82667        19.29552        -0.03938
C         32.08166        18.58431         0.00262
C         33.32685         2.19455        -0.87105
C         33.32741         3.57180        -0.48768
C         34.57762         1.50891        -0.90448
C         34.59365         4.36739        -0.52758
C         33.35183         6.32979         0.52726
C         33.35410         7.76933         0.72792
C         34.56261         5.68767         0.20411
C         34.58420         8.44946         0.61360
C         33.34898        10.62443         0.03647
C         33.40974        12.09603         0.04611
C         34.64062         9.88171         0.25305
C         34.59862        12.79774         0.16565
C         33.38399        14.96886         0.25231
C         33.32134        16.42369         0.49814
C         34.59573        14.26195         0.23377
C         34.64222        17.18151         0.34691
C         33.33677        19.25910        -0.14005
C         34.57625        18.59250        -0.09044
C         35.80038         2.14808        -0.54494
C         35.82667         3.55101        -0.26964
C         37.01920         1.42347        -0.46413
C         37.03098         4.21524         0.00535
C         35.81069         6.35048         0.35057
C         35.82838         7.75594         0.57430
C         37.04876         5.64626         0.22981
C         37.06877         8.45966         0.63700
C         35.84453        10.67896         0.49968
C         35.84844        12.06732         0.36971
C         37.05727         9.92695         0.84102
C         37.10024        12.79911         0.34758
C         35.85152        14.96913         0.24038
C         35.86218        16.38987         0.11363
C         37.08693        14.22879         0.16996
C         37.04630        17.09736        -0.14946
C         35.79006        19.20251        -0.47133
C         37.02039        18.49598        -0.47736
C         38.23488         2.07115        -0.18880
C         38.25512         3.48614         0.02418
C         39.48199         1.35563        -0.14831
C         39.49006         4.17944         0.18988
C         38.27359         6.33834         0.35852
C         38.28869         7.76720         0.53583
C         39.51249         5.60563         0.30737
C         39.55649         8.47909         0.48520
C         38.38115        10.68564         0.73238
C         38.33112        12.11528         0.37916
C         39.59720         9.90225         0.45359
C         39.55493        12.78322         0.06960
C         38.31023        14.90721        -0.02015
C         38.31589        16.37559        -0.07101
C         39.53828        14.19808        -0.16142
C         39.57843        17.08808        -0.62038
C         38.19293        19.11129        -1.01504
C         39.38301        18.41723        -1.22132
C         40.66648         2.01542         0.03975
C         40.70857         3.44254         0.18565
C         41.93038         4.14389         0.30852
C         40.75411         6.28902         0.35906
C         40.76900         7.74553         0.34755
C         41.95039         5.52728         0.37703
C         41.97084         8.46204         0.14886
C         40.79321        10.59678         0.16104
C         40.77988        12.05029        -0.01921
C         41.98105         9.84095         0.02431
C         41.94962        12.75333        -0.35800
C         40.73526        14.85971        -0.60046
C         40.69570        16.24104        -1.05450
C         41.92246        14.11109        -0.66956
C         41.63340        16.79173        -1.91440
C         40.43152        18.92042        -2.04955
C         41.51757        18.13280        -2.37007
O         13.71010         7.28952        -1.46449
O          8.75524        10.08368         1.13711
O         32.12399        13.63236        -1.39524
O         24.08798         3.34657         1.41021
O          8.42517        15.44287         1.93238
O         28.99661        10.86587         2.05341
O         31.01383         6.83413         2.10542
O         28.96806         4.64547        -1.62580
O         37.76604        10.38291         2.03541
O         25.64635         3.43683        -1.81186
O         19.00867        10.33478         2.27777
O         22.88721        10.54181         2.15894
O         27.84112        14.65307         1.57608
O         14.23404        12.60041        -1.13874
O          2.78822        14.66483         1.44244
O         28.46113         6.80994         2.20203
O         22.07236         5.23560        -0.98939
O         34.05819        16.91426         1.66231
O          7.04155        18.27562         1.20022
O         34.06367        10.04485        -1.10814
O         15.49872         3.96820        -1.60667
O         16.35363         5.57463         1.81585
O         15.42889        16.94811         2.20130
O         28.83766        12.15030        -1.29830
O         39.29950        17.01191         0.80798
O         29.02826        16.65508        -1.37742
O         30.76297        15.63177         1.51648
O          6.59359         8.03700        -2.11945
O         14.94778         8.09414         1.87114
O         13.23277        15.55255         2.19789
O         34.70994         4.77349        -1.95774
H         34.73363         3.94882        -2.48961
O         19.53599        12.57541        -1.30330
H         18.74392        13.06998        -1.60673
O         23.33077        11.62469        -1.31080
H         23.19408        12.44553        -1.83001
O         21.05084         5.96666         2.44787
H         20.32566         6.42881         2.91971
O          7.54294        10.44008        -2.31843
H          7.04662         9.80357        -2.88388
O          6.10051        15.08831        -1.79758
H          6.08117        14.17605        -2.16010
O         25.89119         5.97770         2.65909
H         26.72680         6.33519         3.03840
O         11.04998        12.14743        -1.78956
H         11.98786        11.99270        -2.03850
O          3.28795        10.84971        -2.19222
H          3.22276         9.94090        -2.55805
O         18.41820        20.50986         0.71871
H         18.41114        20.29147         1.67318
H          0.21292         1.50210         0.22333
H          0.16539         3.95595         0.11867
H          2.37373         0.26110         0.11529
H          0.16106         5.83515         0.15436
H          0.11109         8.25500         0.07603
H          0.07179        10.14728         0.03874
H          0.05738        12.57802         0.01567
H          0.05401        14.54398        -0.42304
H          0.17375        16.95925        -0.71815
H          1.41038        19.04135        -0.91280
H          4.81756         0.27589        -0.06445
H          3.55328        20.27001        -1.03145
H          7.25749         0.26889        -0.22520
H          5.97010        20.15302        -1.37102
H          9.71403         0.25000        -0.33052
H          8.73239        20.00639        -1.15231
H         12.19612         0.23654        -0.36693
H         10.99575        20.10122        -0.53372
H         14.66318         0.21093        -0.34491
H         13.42592        20.15758        -0.26135
H         17.20956         0.17956        -0.28831
H         15.89994        20.24862         0.00974
H         19.67778         0.25280        -0.50291
H         18.29490        19.58127        -1.10615
H         22.07143         0.35968        -0.88541
H         20.85514        20.28138         0.03532
H         24.58450         0.40372        -1.15747
H         23.31805        20.29170         0.02998
H         27.14070         0.47534        -1.23549
H         25.78919        20.31188        -0.00584
H         29.57933         0.56533        -1.54949
H         28.24955        20.36762        -0.07057
H         32.08699         0.49149        -1.43121
H         30.86075        20.39532        -0.05796
H         34.59303         0.43697        -1.15110
H         33.32926        20.33412        -0.37557
H         37.01371         0.33933        -0.65181
H         35.78131        20.25220        -0.80133
H         39.46953         0.26429        -0.28377
H         38.10219        20.13408        -1.41166
H         41.61410         1.45732         0.05846
H         42.87494         3.58121         0.32540
H         42.92160         6.03420         0.45450
H         42.92057         7.92190         0.03997
H         42.93772        10.34043        -0.17635
H         42.91208        12.22894        -0.42012
H         42.85824        14.60348        -0.96818
H         42.48370        16.19027        -2.26540
H         40.34451        19.93709        -2.45915
H         42.29983        18.53157        -3.03085
