         300
 CSIRO Nanostructure Databank - Neutral Graphene Oxide Data Set
C         30.29332        31.44623        -0.14281
C         30.18709        32.67093        -0.05966
C         30.21563        35.99786        -0.39101
C         30.08776        37.25019        -0.61599
C         30.17286        40.41097        -0.10062
C         30.26387        41.56678         0.38331
C         32.76589        28.72326        -0.65416
C         31.61908        29.20858        -0.61086
C         32.67424        31.45621        -0.72324
C         31.51592        30.58644         0.00049
C         32.48872        32.97790        -0.66580
C         31.31413        33.63545         0.11998
C         32.50415        35.95186         0.09013
C         31.22635        35.09189        -0.23620
C         32.59131        37.26785        -0.76385
C         31.25180        38.07833        -0.83640
C         32.61261        40.26719        -0.19219
C         31.28187        39.60500        -0.56413
C         32.64530        41.71609         0.27391
C         31.33345        42.44978         0.53167
C         32.64368        44.39455         1.04021
C         31.55158        43.81078         0.78916
C         35.48894        27.17106         0.14126
C         35.22494        28.52532        -0.22715
C         34.11348        29.17868        -0.67779
C         35.31787        31.39826        -0.56243
C         34.10059        30.66801        -1.13422
C         35.43221        32.73930        -0.67837
C         33.59918        33.93838        -0.85878
C         35.10759        35.86455        -0.46059
C         33.74810        35.16260        -0.29598
C         35.08944        37.35587        -0.08850
C         33.81347        38.10318        -0.30259
C         35.18766        40.31042        -0.42986
C         33.86093        39.56493        -0.76725
C         35.20583        41.79302        -0.17904
C         33.89557        42.53957        -0.00848
C         35.18491        44.66012         0.68979
C         33.91069        44.01765         0.40891
C         35.47762        45.99251         0.91723
C         37.76599        27.08874         0.91994
C         36.47248        26.50476         0.50540
C         37.70986        28.61119         0.66649
C         36.60212        29.22633        -0.23656
C         37.72366        31.46154         0.07853
C         36.37914        30.68240         0.25084
C         37.66290        32.97462         0.03760
C         36.27506        33.54889         0.29536
C         37.53067        35.86132         0.43043
C         36.25378        35.09523         0.24458
C         37.45509        37.35247         0.49481
C         36.40101        38.07950         0.01456
C         37.69028        40.32860        -0.10626
C         36.38466        39.58838         0.21610
C         37.67782        41.73995         0.21486
C         36.48474        42.46171         0.24811
C         37.71516        44.55562         0.88887
C         36.46818        43.99511         0.15065
C         37.80688        46.13081         1.12851
C         36.49719        46.75891         0.94146
C         40.50725        24.49138         1.57535
C         39.48052        25.02562         1.14829
C         40.42060        27.28102         0.93039
C         39.09692        26.44464         1.13180
C         40.23765        28.74542         1.51779
C         38.96544        29.40729         0.93656
C         40.31002        31.58767         0.41945
C         39.04646        30.79161         0.33825
C         40.24700        32.96402        -0.27384
C         38.92847        33.76581        -0.02528
C         40.08609        35.95071        -0.33462
C         38.94492        35.23559         0.45915
C         40.07945        37.37307        -0.89095
C         38.92885        38.36370        -1.16852
C         40.16698        40.35064        -0.34265
C         38.90893        39.70011        -0.45947
C         40.26732        41.72091         0.04874
C         39.01001        42.38150         0.60572
C         40.27746        44.60820         0.54864
C         38.98000        43.89198         0.26947
C         40.32192        45.97216         0.63376
C         39.16777        46.81371         1.07375
C         40.46281        49.06390         1.32211
C         39.58859        48.20978         1.13377
C         43.08808        24.65946         2.18182
C         41.71539        25.16940         2.06561
C         42.98605        27.40539         1.33247
C         41.66152        26.66318         1.62690
C         42.86545        28.92597         1.48058
C         41.52623        29.60876         1.34296
C         42.83326        31.75309         0.66460
C         41.49350        30.98616         0.73681
C         42.77137        32.98204        -0.31113
C         41.49966        33.78020        -0.01203
C         42.71343        35.93701        -0.61609
C         41.45299        35.28388        -0.06505
C         42.66889        37.35594        -1.10209
C         41.40770        38.08803        -0.73431
C         42.69768        40.32720        -0.68928
C         41.42437        39.55467        -0.45360
C         42.79205        41.56991         0.19138
C         41.49068        42.37769         0.16933
C         42.83253        44.59532         0.24595
C         41.53840        43.82867         0.46028
C         42.76312        46.02973        -0.15734
C         41.41273        46.67490        -0.07741
C         42.84276        48.99852         0.88415
C         41.71749        49.72596         1.36873
C         43.95912        25.57033         2.46178
C         45.56996        27.53209         1.92630
C         44.23395        26.85172         2.04920
C         45.46060        29.00823         1.44901
C         44.15348        29.66681         1.19676
C         45.37884        31.66300         0.27918
C         44.06670        30.85828         0.26855
C         45.30514        33.00961        -0.36905
C         44.04508        33.79284        -0.14330
C         45.37094        36.01963        -0.52324
C         44.03594        35.28021        -0.28438
C         45.24798        37.39007        -1.20194
C         43.95477        38.13388        -1.32608
C         45.28730        40.34112        -1.01052
C         43.94392        39.63760        -1.16573
C         45.34729        41.75086        -0.53688
C         44.09476        42.37787         0.00092
C         45.42641        44.59853        -0.23100
C         44.13412        43.86932         0.04760
C         45.37765        46.15758        -0.02778
C         44.03631        46.87846        -0.07548
C         43.66890        48.19605         0.44662
C         47.22337        27.46465         0.08883
C         46.42337        26.85689         0.80896
C         47.45650        28.85585        -0.26313
C         46.77504        29.65135         0.94383
C         47.90829        31.81485         0.26948
C         46.58776        31.09357         0.49415
C         47.83395        33.27489        -0.22654
C         46.53235        33.74482        -0.81523
C         47.73607        35.89430        -1.60157
C         46.36552        35.18701        -1.36564
C         47.75350        37.44042        -1.75640
C         46.56261        38.10379        -1.05087
C         47.85399        40.30126        -0.92351
C         46.56371        39.57566        -0.86047
C         47.91735        41.81243        -0.70643
C         46.65396        42.31014         0.06098
C         48.00202        44.53529         0.10349
C         46.64228        43.83108         0.06005
C         47.64041        45.87223         0.73970
C         46.63001        46.57897         0.61236
C         49.90969        28.97155        -1.19484
C         48.58187        29.54773        -0.95609
C         50.22805        31.57581        -0.54592
C         48.77608        31.09784        -0.83694
C         50.39531        33.07171        -0.48848
C         49.13577        33.93216        -0.61551
C         50.29964        36.02420        -1.73828
C         49.05228        35.18535        -1.47279
C         50.24828        37.46019        -1.33623
C         49.05217        38.12760        -1.30917
C         50.26720        40.27233        -0.83517
C         48.99973        39.56649        -1.04707
C         50.33318        41.55842        -0.07423
C         49.18267        42.29059         0.04654
C         50.41674        44.17942         0.85819
C         49.03824        43.64526         0.79535
C         51.03927        29.33846        -0.84002
C         52.47967        31.28764         0.28017
C         51.20544        30.51536         0.09741
C         52.54256        32.46830         0.64165
C         51.93164        33.74957         0.23916
C         51.61256        36.09583         0.98057
C         51.56546        34.72239         1.30242
C         51.79335        37.12288         0.32301
C         51.60705        38.03270        -0.84678
C         52.39620        40.38933         0.25524
C         51.54460        39.52649        -0.61981
C         51.74017        41.58150         0.45333
C         52.48014        42.73443         1.04647
C         51.60609        43.94401         1.00044
O         42.25087        29.53353         2.62628
O         48.48832        34.22034         0.66842
O         34.65416        33.40454        -1.61052
O         43.07144        40.39115        -2.07981
O         37.88923        29.32523         1.91165
O         31.22874        39.05555        -1.88789
O         35.45616        41.21567        -1.53674
O         43.41918        46.52982        -1.34308
O         46.67204        38.63973         0.29125
O         51.27459        40.18115        -1.90440
O         41.53503        38.57310         0.65357
O         32.14625        32.18699        -1.84419
O         53.58718        42.67689         1.52510
O         45.84008        32.84928        -1.73011
O         34.25203        37.80011         1.03729
O         38.49930        30.90941        -1.02257
O         42.52860        36.25440        -2.02725
O         44.86918        29.88690         2.44865
O         33.72564        43.58479        -1.01273
O         39.96493        36.20658        -1.74720
O         38.55982        46.36818         2.33734
O         48.33112        35.17360        -2.74666
O         38.09825        33.59557        -1.20992
O         44.41416        43.06075         1.25304
O         36.66216        35.48932         1.59710
O         41.15621        47.64607        -0.77627
O         41.55715        34.57692         1.18976
O         45.61529        45.56031        -1.32968
O         50.78485        32.35203        -1.65620
O         51.23645        35.53184        -2.33588
O         38.18542        38.14871        -2.10571
O         32.81888        40.59107         1.20325
O         44.64815        37.58178        -2.49444
O         41.40919        26.25017         2.98400
O         45.40025        41.45992        -1.94885
O         42.36494        44.33438         1.60321
O         38.26081        26.81115         2.24933
O         44.07034        34.64741         1.03161
O         47.66889        29.51781         2.01160
O         47.35065        29.25232        -1.64298
O         42.88447        41.01887         1.52684
H         42.97171        41.77452         2.15006
O         48.43977        44.82748        -1.20972
H         47.70172        45.26859        -1.68906
O         35.77222        33.19469         1.60399
H         36.01011        33.92108         2.22855
O         45.97878        36.25604         0.75140
H         45.53423        35.67301         1.41402
O         36.19126        39.83009         1.64062
H         36.86371        39.30284         2.12400
O         43.08121        32.26710         1.97531
H         43.09289        31.51265         2.60901
O         35.48268        35.83379        -1.84990
H         34.70080        36.12788        -2.37549
O         31.83239        30.51298         1.36462
H         31.23988        29.87129         1.80695
O         39.32473        35.34013         1.84555
H         38.56028        35.06604         2.39954
O         48.58406        43.44642         2.13620
H         49.26837        42.94759         2.62773
O         37.02507        29.11418        -1.59436
H         36.37258        29.55852        -2.17759
O         43.25998        27.23100        -0.09089
H         43.70741        26.36859        -0.23623
O         50.71771        30.14131         1.34971
H         51.21117        29.36747         1.68901
O         47.89341        42.42373        -2.00764
H         48.72394        42.20124        -2.47781
O         37.51038        44.06059         2.23072
H         38.02006        44.63685         2.84782
O         42.82896        32.55952        -1.68035
H         41.91186        32.45680        -2.04324
O         31.69625        33.58001         1.52021
H         30.87996        33.61006         2.06283
O         46.28480        27.51889         3.11650
H         47.00596        28.21138         2.99738
O         45.74697        35.10620        -2.64577
H         46.30403        34.54480        -3.22679
O         40.60730        27.37773        -0.48035
H         41.57456        27.38446        -0.69397
O         33.75516        39.49859        -2.19670
H         34.25610        40.26662        -2.56683
O         52.63898        37.75568        -1.77933
H         52.70340        38.52179        -2.38896
O         39.01976        43.97706        -1.17629
H         38.10543        44.04062        -1.55360
O         46.77699        41.77366         1.39110
H         46.10723        42.21590         1.95992
O         32.85553        36.85162        -2.11821
H         32.82147        37.66325        -2.67927
O         34.14198        30.66711        -2.55060
H         33.56897        31.40232        -2.87675
O         35.90525        30.56775         1.59288
H         35.66843        31.46465         1.92784
O         48.37346        31.64493        -2.08885
H         48.82325        31.16248        -2.81319
O         43.88968        30.28858        -1.03417
H         43.80962        31.03053        -1.68547
O         41.87838        50.92606         1.92319
H         41.02566        51.30055         2.22155
O         48.64971        31.83809         1.48250
H         48.45058        30.97900         1.97094
O         51.10885        34.26693         2.44052
H         50.79841        34.97566         3.03991
O         52.64269        34.37468        -0.76297
H         52.76879        33.76261        -1.51819
O         40.27784        32.70339        -1.69229
H         39.46050        32.18873        -1.91832
O         40.06994        28.63912         2.92129
H         39.17146        28.27182         3.10261
O         47.58043        37.74075        -3.15122
H         47.92355        36.98006        -3.67177
O         32.41747        36.26898         1.46903
H         32.37461        35.41993         1.96532
O         38.43724        37.92185         1.26355
H         39.01852        37.22355         1.65505
O         39.17820        42.15412         2.02281
H         38.35549        42.45820         2.47541
O         36.46467        44.33169        -1.25846
H         35.60289        44.02064        -1.63180
