         344
 CSIRO Nanostructure Databank - Neutral Graphene Oxide Data Set
C          1.38292         3.53679         1.51609
C          0.18242         4.22180         1.67053
C          1.22789         6.27952         0.88436
C          0.09978         5.58347         1.36685
C          1.18230         7.71661         0.59390
C         -0.00593         8.39895         0.41120
C          1.11879        10.54093         0.07062
C         -0.01601         9.78184         0.03490
C          1.14039        11.94696        -0.40842
C         -0.09796        12.73629        -0.49166
C          1.14316        14.87246        -0.56024
C         -0.07512        14.09025        -0.59248
C          1.09139        16.31366        -0.58251
C         -0.08194        17.04139        -0.61555
C          1.05963        19.19550        -0.32219
C         -0.07835        18.46932        -0.60286
C          1.08379        20.63773        -0.23990
C         -0.06329        21.41994        -0.58953
C          1.10146        23.52592        -0.15214
C         -0.02955        22.79596        -0.61029
C          1.15127        24.94055        -0.13962
C         -0.00033        25.71767        -0.47015
C          1.27981        27.78494        -0.37608
C          0.05935        27.08743        -0.58113
C          1.34812        29.20601        -0.66732
C          3.78703         3.53304         0.92986
C          2.53565         4.21460         1.04847
C          3.61593         6.28777         0.07044
C          2.44824         5.59696         0.73257
C          3.63627         7.78024         0.29702
C          2.42961         8.43669         0.47996
C          3.65184        10.63212         0.31361
C          2.37450         9.92617         0.68095
C          3.61228        12.13388         0.39579
C          2.42481        12.73598        -0.33606
C          3.61108        14.93057        -0.26657
C          2.37500        14.21722        -0.37799
C          3.63449        16.34128        -0.37022
C          2.37820        17.11032        -0.69602
C          3.57746        19.21936        -0.00780
C          2.29684        18.41684         0.09619
C          3.52841        20.59449         0.16316
C          2.27398        21.29489         0.13306
C          3.51302        23.50318         0.77127
C          2.23359        22.75163         0.38086
C          3.55140        24.93920         0.50069
C          2.39389        25.63287         0.15572
C          3.68325        27.77398         0.12369
C          2.43361        27.07838         0.01511
C          3.69920        29.28508         0.12208
C          2.48454        29.90983        -0.50147
C          6.22310         3.54403         0.63417
C          4.97395         4.21837         0.62958
C          6.11909         6.35188         0.16453
C          4.94347         5.63483         0.35122
C          6.10244         7.79799        -0.00678
C          4.86729         8.49595         0.14724
C          6.09502        10.65723        -0.05311
C          4.84640         9.94446         0.14493
C          6.10114        12.08579        -0.09133
C          4.88792        12.81607        -0.00083
C          6.09521        14.93337        -0.25420
C          4.86202        14.21383        -0.15752
C          6.09561        16.35574        -0.31662
C          4.83732        17.05941        -0.33631
C          6.03203        19.19476        -0.17596
C          4.82846        18.51138        -0.21667
C          6.04154        20.58812         0.30589
C          4.79721        21.42924         0.06875
C          6.09075        23.50464         0.65903
C          4.81579        22.70567         0.95521
C          6.08104        24.88190         0.65343
C          4.81514        25.67744         0.87630
C          6.13980        27.72688         0.07586
C          4.87557        27.08062         0.30718
C          6.13364        29.11181        -0.39868
C          4.98759        29.83230        -0.42518
C          8.64551         3.51486         0.30825
C          7.41629         4.21899         0.34913
C          8.54737         6.34748        -0.20137
C          7.38439         5.65805         0.12323
C          8.56110         7.78000        -0.38744
C          7.31337         8.49822        -0.23769
C          8.51744        10.66131        -0.46352
C          7.30708         9.94695        -0.26808
C          8.55497        12.07589        -0.38881
C          7.32947        12.79580        -0.24818
C          8.56092        14.93532        -0.34902
C          7.32834        14.22177        -0.27880
C          8.55553        16.36020        -0.37084
C          7.32713        17.05286        -0.36921
C          8.58656        19.24162        -0.22291
C          7.30963        18.53752        -0.62063
C          8.60125        20.59445         0.08832
C          7.35151        21.30761         0.45476
C          8.57488        23.46408         0.48833
C          7.33699        22.78227         0.52518
C          8.60976        24.88415         0.53078
C          7.36132        25.66165         0.83798
C          8.60897        27.69562         0.00764
C          7.35230        27.04465         0.22723
C          8.65661        29.05667        -0.44682
C          7.40198        29.72961        -0.93847
C         11.06494         3.47858        -0.13431
C          9.84062         4.14626        -0.07983
C         11.05385         6.30379        -0.72250
C          9.76854         5.56806        -0.48909
C         11.04085         7.78563        -0.67016
C          9.76861         8.46456        -0.63939
C         11.01911        10.67404        -0.70711
C          9.73086         9.93639        -0.97996
C         11.04752        12.04631        -0.50664
C          9.79822        12.79873        -0.42725
C         11.02940        14.95428        -0.29520
C          9.79847        14.21082        -0.36971
C         11.05223        16.34579        -0.31726
C          9.81105        17.09599        -0.39693
C         11.09824        19.25417        -0.49224
C          9.80860        18.49356        -0.33542
C         11.07251        20.65233         0.06044
C          9.84687        21.32562         0.21177
C         11.05538        23.43602         0.56431
C          9.82512        22.73558         0.42852
C         11.07079        24.88081         0.57708
C          9.82782        25.58407         0.46826
C         11.07743        27.69240         0.14482
C          9.83365        27.00826         0.24903
C         11.09205        29.09749        -0.17867
C          9.85441        29.73539        -0.50595
C         13.49605         3.41292        -0.33578
C         12.30738         4.12647        -0.44495
C         13.52110         6.27636        -0.64293
C         12.33971         5.57366        -0.62076
C         13.54489         7.76287        -0.35887
C         12.24714         8.45983        -0.73111
C         13.58412        10.67202        -0.81901
C         12.26085         9.92489        -0.92110
C         13.52000        12.07718        -0.37145
C         12.29961        12.73963        -0.29679
C         13.54580        14.88282        -0.30540
C         12.25497        14.19106         0.15505
C         13.55325        16.37426        -0.07161
C         12.31384        17.08247        -0.15431
C         13.55063        19.19983         0.09237
C         12.32740        18.47998        -0.09673
C         13.55774        20.61225         0.24515
C         12.29833        21.32729         0.28155
C         13.52888        23.39392         0.89105
C         12.27276        22.71117         0.56819
C         13.54063        24.92240         0.93554
C         12.27965        25.60700         0.61371
C         13.55913        27.71907         0.36386
C         12.29888        27.00497         0.36806
C         13.54337        29.14471         0.04264
C         12.30367        29.78721        -0.22665
C         16.03147         3.39118        -0.23707
C         14.77988         4.01047        -0.65698
C         16.06296         6.28539        -0.54657
C         14.79906         5.58507        -0.83574
C         16.06576         7.70437        -0.50127
C         14.80983         8.43655        -0.94245
C         15.98556        10.58604        -0.30713
C         14.83186         9.91154        -0.59621
C         15.97954        12.03313        -0.19338
C         14.78915        12.72799        -0.13300
C         16.04616        14.93426        -0.01849
C         14.77450        14.18265         0.27767
C         16.02926        16.29289        -0.04232
C         14.77390        17.04953        -0.01670
C         16.01100        19.20524         0.07226
C         14.79402        18.48426         0.08959
C         16.05469        20.61053         0.23684
C         14.80050        21.32233         0.41620
C         16.03475        23.44433         0.95948
C         14.79766        22.69598         0.68761
C         16.02198        24.92407         0.89951
C         14.83371        25.63309         0.78626
C         16.04838        27.86552         0.74705
C         14.76731        27.06655         0.59560
C         16.00702        29.24796         0.11959
C         14.73592        29.85595        -0.09490
C         18.44580         3.42162         0.15490
C         17.21486         4.10430        -0.15813
C         18.46045         6.25677        -0.04946
C         17.24001         5.55376        -0.28651
C         18.47201         7.68196        -0.04273
C         17.24926         8.38834        -0.21693
C         18.52412        10.53903        -0.43350
C         17.25345         9.86791         0.09702
C         18.54645        12.02443        -0.16822
C         17.27415        12.78382        -0.45397
C         18.58226        14.87506        -0.19055
C         17.32051        14.16001         0.21030
C         18.50222        16.31546        -0.62540
C         17.34552        17.01951         0.11266
C         18.52867        19.22087        -0.44775
C         17.24713        18.47575        -0.27282
C         18.51653        20.67547        -0.17094
C         17.29884        21.31198         0.21685
C         18.69813        23.41884         0.70114
C         17.35626        22.68935         0.74111
C         18.58829        24.93068         0.58916
C         17.33960        25.67801         1.00954
C         18.52065        27.76733         0.08964
C         17.21124        26.99377         0.19930
C         18.49104        29.27478         0.03547
C         17.17604        29.94945        -0.02765
C         19.61983         4.10331         0.31636
C         20.85858         6.24534         0.46519
C         19.66067         5.53263         0.23317
C         20.88866         7.62839         0.41631
C         19.71891         8.39184         0.15474
C         20.93285        10.57318         0.26086
C         19.76202         9.81378         0.04410
C         20.94592        11.95697         0.17992
C         19.74171        12.70821        -0.03535
C         20.99578        14.91333        -0.39429
C         19.76418        14.18177        -0.18542
C         21.01189        16.28390        -0.46828
C         19.81282        17.06893        -0.45776
C         20.99782        19.26501        -0.38777
C         19.81488        18.47025        -0.40657
C         20.94704        20.64894        -0.40027
C         19.73138        21.37129        -0.27877
C         20.95104        23.62587        -0.33111
C         19.63580        22.88003        -0.38836
C         20.98571        24.90870         0.07232
C         19.75822        25.62728         0.42492
C         20.89804        27.84830         0.70276
C         19.77884        27.09166         0.46458
C         20.83789        29.28462         0.75733
C         19.69773        29.97729         0.48682
O         17.69989        18.82933        -1.63382
O         14.83968         4.68084        -1.95828
O         13.47673        24.13630         2.17125
O          2.05045        12.09424        -1.58436
O         16.79049        22.84178         2.09552
O          6.66870        20.67701         1.62415
O         10.25519         5.80476        -1.86201
O          2.52736        23.11984         1.79495
O         18.67298        28.45046        -1.20618
O         12.98841        10.38443        -2.14058
O          2.19939        10.10649         2.14184
H          2.39954        11.05962         2.32846
O         11.24499        19.44886        -1.95794
H         11.14026        18.56902        -2.38021
O         17.32630         9.97517         1.54770
H         16.53624         9.53359         1.92413
O          7.38155        29.64836        -2.38301
H          7.38134        28.70108        -2.63155
O         13.67784         7.92321         1.09571
H         12.90823         7.48975         1.52167
O         18.46813        10.40975        -1.89832
H         19.34664        10.66372        -2.25332
O          2.50187        17.49271        -2.10160
H          2.45336        16.67437        -2.63902
O          7.29438        18.66971        -2.10528
H          6.60495        18.05807        -2.44333
O          3.65809        29.67413         1.54653
H          4.29039        29.09512         2.02423
O         19.35631        23.12999         1.96160
H         18.65574        23.10243         2.65197
O         17.67877        16.96342         1.53609
H         16.96032        17.41159         2.03180
O          4.71642        25.86600         2.33473
H          5.63608        26.06602         2.64783
O          4.85942        21.92416        -1.29879
H          4.82089        21.15573        -1.90693
O         19.00193        23.17015        -1.66288
H         19.58046        22.83518        -2.37881
O          3.40410         6.11881        -1.38306
H          3.39743         5.15463        -1.56375
O          7.43677        25.90633         2.31683
H          7.65039        25.04396         2.73672
O         13.59092        14.70493        -1.74408
H         14.45790        15.02931        -2.06875
O         14.76171         8.32673        -2.38019
H         14.08769         8.97841        -2.69966
O         17.26158        13.01173        -1.89365
H         17.40466        12.13451        -2.32107
O         16.21091        28.16868         2.15245
H         16.44285        27.33406         2.62853
O         17.53395        25.95582         2.43483
H         17.47237        25.09356         2.90163
O         16.83688        26.58440        -1.13288
H         17.27833        27.20957        -1.75522
O         14.71374        14.18684         1.74244
H         15.61198        13.89214         2.05026
O         12.11310        14.20023         1.59859
H         12.99631        14.00888         1.99874
O          2.12842        18.06135         1.49658
H          2.11631        18.88967         2.02016
O          4.89897        22.33530         2.33681
H          4.00411        22.46709         2.72925
O         18.18597        16.26866        -2.04068
H         18.07217        17.20578        -2.34009
O          3.38433        12.50174         1.81860
H          4.23828        12.39643         2.29047
O         17.40379        13.95358         1.66305
H         17.67161        14.82282         2.04439
O          9.58976         9.97438        -2.45596
H          8.90499         9.31688        -2.70403
H          1.44962         2.46767         1.76313
H         -0.70667         3.69247         2.04090
H         -0.85255         6.11124         1.51340
H         -0.96525         7.86412         0.44321
H         -0.96507        10.20859        -0.32145
H         -1.06573        12.21850        -0.42982
H         -1.03494        14.62062        -0.65835
H         -1.05861        16.53932        -0.65646
H         -1.03810        18.97752        -0.77461
H         -0.97918        20.91257        -0.91961
H         -0.91684        23.33374        -0.97015
H         -0.96163        25.21661        -0.64404
H         -0.84010        27.65665        -0.85671
H          0.44609        29.68768        -1.07450
H          3.83140         2.45879         1.16222
H          2.52440        30.98145        -0.74703
H          6.24741         2.46318         0.83718
H          5.00697        30.87805        -0.76978
H          8.65558         2.44321         0.55702
H          7.42810        30.82045        -0.68985
H         11.09352         2.40640         0.11227
H          9.86944        30.78775        -0.82660
H         13.47631         2.38157         0.04743
H         12.30840        30.85418        -0.49519
H         16.02039         2.32743         0.04623
H         14.69960        30.90598        -0.42405
H         18.42418         2.32564         0.24394
H         17.14959        31.00815        -0.33117
H         20.55043         3.56140         0.53999
H         21.78055         5.68610         0.68102
H         21.84791         8.13795         0.57873
H         21.87067        10.06392         0.52442
H         21.89244        12.48792         0.34918
H         21.94845        14.36686        -0.42948
H         21.98474        16.79384        -0.52489
H         21.98088        18.77526        -0.41102
H         21.89626        21.19973        -0.44932
H         21.87002        23.14599        -0.69837
H         21.93318        25.46678         0.05691
H         21.85332        27.36322         0.94887
H         21.74044        29.82553         1.07642
H         19.65192        31.06541         0.63905
