         404
 CSIRO Nanostructure Databank - Neutral Graphene Oxide Data Set
C          1.51173         3.48394         0.80075
C          0.33782         4.05405         0.32560
C          1.36130         6.27268         0.32520
C          0.25923         5.42911         0.07720
C          1.30369         7.72169         0.09162
C          0.09320         8.35498        -0.25773
C          1.16599        10.54351        -0.42949
C          0.02171         9.72417        -0.48962
C          1.09271        11.97768        -0.63868
C         -0.13685        12.66447        -0.82444
C          0.98190        14.83303        -0.93840
C         -0.19617        14.04106        -0.95777
C          0.96949        16.28853        -0.97673
C         -0.20829        17.01873        -0.68690
C          0.94101        19.18686        -0.77885
C         -0.21551        18.40029        -0.54531
C          0.99161        20.58967        -0.60069
C         -0.22018        21.34134        -0.38442
C          1.03752        23.45455        -0.39108
C         -0.21877        22.69458        -0.31537
C          1.06428        24.93628        -0.05311
C         -0.16649        25.64491         0.33583
C          1.12779        27.67168         0.67897
C         -0.12467        26.95296         0.68498
C          1.17510        29.10224         0.67565
C          0.02249        29.91038         0.87696
C          1.18566        31.97979         0.25620
C          0.04803        31.29010         0.74413
C          1.25161        33.39538         0.13253
C          0.09292        34.20118         0.34039
C          1.39801        36.25759         0.26110
C          0.15607        35.57557         0.39018
C          1.48129        37.66704         0.44466
C          3.89686         3.68575         1.40526
C          2.65010         4.29250         1.04753
C          3.69579         6.56093         1.14674
C          2.55033         5.69631         0.82731
C          3.72123         7.94424         0.62648
C          2.47752         8.51826         0.19050
C          3.61833        10.68041        -0.10949
C          2.42390         9.92074        -0.11828
C          3.56982        12.08295        -0.43015
C          2.28739        12.74818        -0.63457
C          3.44199        14.96519        -0.76677
C          2.21712        14.15314        -0.79824
C          3.40175        16.34041        -1.28697
C          2.18034        17.01413        -1.25279
C          3.45618        19.28405        -1.30615
C          2.13061        18.49750        -1.31515
C          3.48522        20.61310        -0.67865
C          2.25389        21.30124        -0.53980
C          3.52119        23.34795         0.03115
C          2.29960        22.69892        -0.27814
C          3.55836        24.77460         0.33403
C          2.35477        25.54234         0.33942
C          3.60013        27.65913         0.77192
C          2.33221        26.93047         0.59951
C          3.63182        29.07777         0.36269
C          2.40983        29.75265         0.33359
C          3.68824        31.85558        -0.35881
C          2.35317        31.15698        -0.09523
C          3.69179        33.32054        -0.29714
C          2.51945        34.05755        -0.12706
C          3.80460        36.19932        -0.13058
C          2.57899        35.51105        -0.03255
C          3.89385        37.59833         0.13106
C          2.69305        38.31928         0.40340
C          6.34659         3.81102         1.66683
C          5.08154         4.41758         1.52157
C          6.25829         6.65418         1.28287
C          5.01699         5.89472         1.49791
C          6.18634         8.04800         0.96042
C          4.91047         8.67466         0.63695
C          6.06440        10.81048         0.20568
C          4.88969        10.07286         0.22903
C          6.07370        12.27901        -0.08270
C          4.75312        12.79284        -0.54453
C          5.99245        14.88473        -1.16564
C          4.75578        14.24156        -0.71157
C          5.95765        16.26913        -1.35094
C          4.68608        16.99067        -1.54040
C          5.97231        19.14655        -0.97344
C          4.74094        18.54867        -1.46873
C          5.94439        20.43829        -0.35144
C          4.70572        21.21439        -0.27083
C          5.91854        23.17132         0.79377
C          4.71872        22.57637         0.13933
C          6.02077        24.67208         0.80350
C          4.81759        25.39214         0.60393
C          6.11909        27.57674         0.44361
C          4.87172        26.86477         0.77567
C          6.12953        28.97121         0.20144
C          4.89440        29.72625         0.12335
C          6.19520        31.80113        -0.22547
C          4.94511        31.11126        -0.14556
C          6.23767        33.21748        -0.41491
C          4.97835        33.96282        -0.58862
C          6.33548        36.12135        -0.34967
C          5.02473        35.48753        -0.52392
C          6.36221        37.55149        -0.09294
C          5.15543        38.24655         0.11286
C          8.79230         3.93956         1.82286
C          7.54258         4.57141         1.68442
C          8.71225         6.75759         1.40956
C          7.48901         6.00779         1.45994
C          8.65101         8.15906         1.05424
C          7.38378         8.76998         0.84621
C          8.53690        10.78210        -0.11419
C          7.36955        10.26598         0.70492
C          8.42530        11.94097        -0.92551
C          7.23709        12.75751        -0.94794
C          8.36733        14.90050        -1.71450
C          7.19902        14.12224        -1.34849
C          8.39982        16.30311        -1.48582
C          7.17094        17.00957        -1.38283
C          8.43304        18.99115        -0.75141
C          7.18290        18.40687        -1.09465
C          8.39620        20.21749         0.03599
C          7.12613        20.94582         0.18491
C          8.49092        22.72383         1.26171
C          7.15578        22.19568         0.94111
C          8.48064        24.89655         1.35688
C          7.24094        25.43055         0.90817
C          8.56971        27.48194         0.36419
C          7.30861        26.82624         0.53147
C          8.58289        28.86355         0.06684
C          7.38603        29.62979         0.00124
C          8.64761        31.77315        -0.30196
C          7.42142        31.06379        -0.18487
C          8.69714        33.18245        -0.38752
C          7.46169        33.91952        -0.46091
C          8.79249        36.08019        -0.73537
C          7.49020        35.36578        -0.47216
C          8.81998        37.49983        -0.20224
C          7.61424        38.19801         0.00355
C         11.26304         4.04278         1.91622
C         10.00528         4.67342         1.78181
C         11.18510         6.85703         1.64395
C          9.93775         6.10325         1.62550
C         11.11840         8.33518         1.14429
C          9.83388         8.88436         0.75438
C         10.97443        10.73868        -0.50266
C          9.78529        10.12984         0.01300
C         10.89264        11.88803        -1.32341
C          9.59125        12.29097        -1.66856
C         10.82858        14.92116        -2.05216
C          9.56334        14.33028        -2.19114
C         10.88026        16.29140        -1.65905
C          9.65364        16.98470        -1.42329
C         10.93023        19.03212        -0.81190
C          9.66681        18.34539        -0.98718
C         10.96290        20.34674        -0.30519
C          9.73942        20.91466         0.27011
C         10.96882        23.03028         0.95166
C          9.68292        22.32377         0.70753
C         10.94699        24.55415         1.23900
C          9.74020        25.40092         1.03797
C         11.05354        27.39612         0.38453
C          9.81716        26.74655         0.52314
C         11.14043        28.80714         0.12266
C          9.87699        29.51760        -0.21147
C         11.17091        31.73333        -0.13595
C          9.91128        31.01772        -0.37236
C         11.20003        33.11927        -0.19829
C          9.97057        33.87407        -0.35930
C         11.24712        35.97164        -0.23053
C         10.02223        35.28142        -0.38063
C         11.27916        37.41635        -0.17277
C         10.04820        38.13695        -0.07036
C         13.75294         4.11880         1.92626
C         12.48442         4.75500         1.76507
C         13.67033         6.88320         1.26892
C         12.45958         6.15282         1.52158
C         13.63648         8.21391         0.82099
C         12.34176         8.78353         0.42951
C         13.51923        10.67279        -0.87183
C         12.24888         9.99800        -0.43888
C         13.44447        11.98389        -1.63826
C         12.08537        12.59191        -1.91308
C         13.34584        14.88968        -2.42111
C         12.04753        14.09961        -2.28102
C         13.30365        16.39677        -2.25238
C         12.10854        17.03509        -1.66399
C         13.38461        19.13836        -1.20420
C         12.14426        18.38248        -1.24458
C         13.36157        20.49064        -0.72216
C         12.18257        21.10145        -0.24172
C         13.43466        23.11556         0.47747
C         12.21388        22.42730         0.37675
C         13.52430        24.41810         1.26651
C         12.26200        25.27602         1.21072
C         13.58708        27.36185         0.56169
C         12.29621        26.71748         0.79901
C         13.65378        28.74951        -0.00460
C         12.34164        29.48697         0.14365
C         13.67980        31.59429        -0.26573
C         12.40388        30.98331         0.31822
C         13.69094        33.09414        -0.08050
C         12.47785        33.81376        -0.13704
C         13.70199        35.95592        -0.17704
C         12.48173        35.25092        -0.14535
C         13.73477        37.38452        -0.14129
C         12.49965        38.08921        -0.11714
C         16.22521         4.22794         2.09450
C         14.94479         4.82605         1.76139
C         16.13103         6.84919         0.90092
C         14.92826         6.19538         1.35220
C         16.11387         8.16266         0.46701
C         14.89844         9.03423         0.75977
C         16.03799        10.90708        -0.71121
C         14.79652        10.30130        -0.14238
C         15.93384        12.06649        -1.67001
C         14.66196        12.81241        -1.69699
C         15.93300        14.98921        -2.10435
C         14.67552        14.18636        -2.21862
C         15.90639        16.41972        -2.15425
C         14.61958        17.16477        -2.15581
C         15.87283        19.21914        -1.48916
C         14.61087        18.52687        -1.58398
C         15.88555        20.55154        -0.96978
C         14.59584        21.33266        -0.89660
C         15.89341        23.16502         0.23474
C         14.64675        22.54000         0.00442
C         15.94168        24.53479         0.70183
C         14.75696        25.22974         0.94430
C         15.99239        27.39482         1.00353
C         14.76396        26.67506         0.87086
C         16.04858        28.81525         0.87372
C         14.87785        29.52675         0.45084
C         16.13399        31.63684         0.45843
C         14.92089        30.90659         0.27025
C         16.16018        33.06442         0.23617
C         14.94198        33.75197        -0.03304
C         16.26484        35.96581        -0.10419
C         14.95300        35.20217        -0.27947
C         16.19069        37.41803         0.15404
C         14.95913        38.08093         0.00927
C         18.65724         4.40120         2.32008
C         17.39698         4.84593         1.76819
C         18.64266         6.81590         0.81176
C         17.38142         5.98228         0.76643
C         18.64604         8.04138        -0.01235
C         17.31490         8.76697        -0.16222
C         18.50466        10.83967        -0.86441
C         17.33992        10.20319        -0.54482
C         18.50578        12.15661        -1.55279
C         17.20912        12.82484        -1.91976
C         18.38522        15.03739        -2.07307
C         17.15619        14.30700        -1.99726
C         18.33371        16.42541        -2.40137
C         17.10240        17.17371        -2.23237
C         18.27620        19.43137        -1.95978
C         17.08164        18.60808        -1.96003
C         18.32005        20.64379        -1.19972
C         17.10160        21.21720        -0.71830
C         18.36600        23.18980         0.11588
C         17.12287        22.53303        -0.12360
C         18.40483        24.53126         0.65335
C         17.19763        25.20555         0.84607
C         18.50725        27.31654         1.50690
C         17.18233        26.59757         1.31703
C         18.48451        28.82187         1.52096
C         17.26064        29.54261         1.09759
C         18.58057        31.66256         0.91214
C         17.31830        30.93678         0.84532
C         18.59910        33.08170         0.75180
C         17.38800        33.79274         0.42889
C         18.60461        35.93972         0.68966
C         17.43570        35.20807         0.34969
C         18.57567        37.37911         0.74389
C         17.36349        38.08315         0.53280
C         19.78436         5.15247         2.20520
C         20.99290         7.20338         1.40142
C         19.77606         6.40509         1.46936
C         21.07769         8.32498         0.65314
C         19.93435         8.80673        -0.15311
C         20.93375        11.21673        -0.30122
C         19.85488        10.24470        -0.63127
C         20.88108        12.49639        -0.71003
C         19.76154        12.96926        -1.55888
C         20.82130        15.04968        -2.36795
C         19.66182        14.39963        -1.96077
C         20.73565        16.31258        -2.97454
C         19.50654        16.95586        -2.99501
C         20.61785        19.89010        -2.64263
C         19.42883        19.16912        -2.74436
C         20.69993        20.94371        -1.73904
C         19.55248        21.35079        -1.03512
C         20.81563        23.18451         0.09478
C         19.58486        22.56569        -0.25162
C         20.86138        24.45261         0.62944
C         19.67287        25.20912         0.84295
C         20.93191        27.35596         0.94317
C         19.72855        26.59632         1.13489
C         20.99279        28.71045         1.07752
C         19.81285        29.53070         1.40620
C         21.01665        31.69164         1.11805
C         19.80552        30.97951         1.09424
C         21.02553        33.07519         1.05452
C         19.82434        33.79767         0.90670
C         20.98383        35.99557         1.23309
C         19.82699        35.24956         0.94342
C         20.94734        37.39467         1.29155
C         19.76432        38.08210         1.05866
O          8.44078        23.77069         2.17995
O          4.15199         6.45900         2.54333
O         11.92665        13.05433        -3.27729
O         17.87718         7.91571        -1.24655
O         11.01368        23.57808         2.31240
O         19.40106        18.15794        -3.70902
O         17.77610        26.76884         2.65421
O         13.65686        10.67190        -2.31667
O         15.43309        11.43082         0.55580
O          4.79790        17.84102        -2.72902
O          9.95470        30.10920        -1.55995
O         20.26237         9.16306        -1.52972
O         16.56422        12.04215        -2.98620
O          1.05250        24.47346        -1.46106
O          2.85862        31.34439        -1.46074
O          6.19981        22.41864         2.01756
O         14.07513        14.42519        -3.57570
O          9.14089        20.04715         1.30168
O          4.28355        27.35843         2.04764
O         15.78655        35.58401        -1.43668
O         12.25795        26.28561         2.26524
O          4.19344        14.90064         0.52874
O          4.92385        34.78135        -1.80955
O          2.63290        19.17866        -2.50634
O         11.26065         8.02064         2.54443
O         19.17488        29.31238         2.71940
O          9.43370        13.08062        -2.81076
O         19.44720        12.09112        -2.68935
O         12.12353         8.65802        -1.04728
O         13.84339        17.09324        -3.41466
O          7.56567        10.76850         2.07239
H          7.21579        11.69484         2.09248
O         15.08752         9.51084         2.13291
H         15.46769        10.42036         2.07028
O         14.45539        21.90769        -2.26941
H         14.41925        21.15164        -2.89529
O         12.50591        31.20703         1.76535
H         11.78106        30.71766         2.20800
O          6.29382        12.96341         1.23705
H          5.54877        13.59032         1.39115
O         13.69124        24.02209         2.65888
H         13.34759        24.76031         3.21047
O         17.32908         5.34729        -0.54567
H         17.43542         6.07041        -1.21158
O         13.64002        31.35579        -1.70800
H         14.33988        31.90028        -2.12726
O         13.83048        28.58011        -1.46209
H         13.72878        29.48404        -1.85831
O          8.85305        36.21563        -2.20190
H          7.99783        36.59389        -2.49866
H          1.57242         2.40024         0.97468
H         -0.53861         3.42017         0.13151
H         -0.68191         5.84092        -0.31036
H         -0.83201         7.76810        -0.33019
H         -0.95593        10.16042        -0.73462
H         -1.07886        12.09962        -0.84386
H         -1.17644        14.51982        -1.08905
H         -1.13712        16.47096        -0.47601
H         -1.14590        18.88080        -0.21401
H         -1.18119        20.81052        -0.35796
H         -1.17102        23.23863        -0.26230
H         -1.13328        25.12995         0.25870
H         -1.05760        27.48521         0.91460
H         -0.91472        29.43788         1.20063
H         -0.86141        31.85092         0.99912
H         -0.88323        33.71510         0.47079
H         -0.75753        36.16129         0.56705
H          0.55869        38.22784         0.65362
H          3.93618         2.58893         1.48773
H          2.74877        39.40303         0.57950
H          6.41036         2.71501         1.74388
H          5.19555        39.32877         0.30656
H          8.83079         2.84772         1.95333
H          7.65111        39.26044         0.28853
H         11.29953         2.96031         2.10793
H         10.08241        39.21311         0.15921
H         13.78579         3.05547         2.20502
H         12.51094        39.18692        -0.04956
H         16.23104         3.32137         2.71961
H         14.92983        39.17468         0.12613
H         18.66556         3.47352         2.91182
H         17.34679        39.17452         0.67143
H         20.72464         4.83024         2.67462
H         21.87185         6.84781         1.95867
H         22.03351         8.86092         0.57170
H         21.79767        10.86550         0.28134
H         21.67709        13.20481        -0.43725
H         21.78840        14.53237        -2.30912
H         21.61014        16.77451        -3.44873
H         21.46935        19.62185        -3.28031
H         21.63948        21.50322        -1.65052
H         21.76025        22.64935        -0.07108
H         21.83853        24.88598         0.88023
H         21.84514        26.82657         0.63765
H         21.93589        29.22010         0.83538
H         21.96595        31.15782         1.25768
H         21.98522        33.60101         1.13669
H         21.93779        35.48984         1.43181
H         21.86586        37.94888         1.52942
H         19.74008        39.17994         1.10939
