         291
 CSIRO Nanostructure Databank - Neutral Graphene Oxide Data Set
C          1.18643         1.84887        -0.48719
C          1.16853         3.18458        -1.10532
C          2.31335         1.24726        -0.04386
C          1.89624         4.18434        -0.55560
C          0.95991         6.44409        -0.71088
C          1.01137         7.78147        -0.54497
C          2.15311         5.58055        -1.08096
C          2.25191         8.52497        -0.58166
C          1.11542        10.73813        -0.47097
C          1.15782        12.08729        -0.48853
C          2.30271         9.90669        -0.57407
C          2.39683        12.87367        -0.78046
C          1.69923        14.57652         0.99508
C          1.59393        15.92305         1.08573
C          2.85726        13.89511         0.30375
C          2.66635        16.81021         0.66984
C          2.70947        18.16286         1.08338
C          3.66257         1.87643        -0.31267
C          3.73935         3.30463         0.19591
C          4.94134         1.14995         0.01065
C          4.81123         4.07627        -0.06422
C          3.52011         6.25500        -0.65551
C          3.52548         7.75143        -0.53899
C          4.69610         5.58269         0.15330
C          4.68254         8.47105         0.18894
C          3.59562        10.59007        -0.62571
C          3.61569        11.99004        -1.21131
C          4.74050         9.93178        -0.29439
C          4.92353        12.74433        -0.99031
C          3.60183        14.88776        -0.60808
C          3.78910        16.25687        -0.00231
C          4.84382        14.23202        -1.32712
C          4.96217        16.99793        -0.11350
C          3.84952        18.92850         0.90099
C          5.03181        18.34745         0.35739
C          6.03050         1.96587         0.61502
C          6.11505         3.32762        -0.23414
C          7.39166         1.29384         0.66895
C          7.26184         4.17791         0.26810
C          6.00477         6.34826        -0.10023
C          5.99409         7.70551        -0.04907
C          7.32399         5.58714        -0.29915
C          7.22337         8.44231         0.46529
C          6.01323        10.69016        -0.19469
C          6.07858        12.08314        -0.73581
C          7.26408         9.95960         0.18067
C          7.46454        12.69928        -0.97169
C          6.16595        14.95951        -1.05298
C          6.26729        16.29952        -0.34518
C          7.44760        14.21126        -0.92546
C          7.37279        17.17674        -0.98402
C          6.26857        19.04246         0.32670
C          7.46482        18.49683        -0.22870
C          8.54919         1.98943         0.71704
C          8.52019         3.47765         0.64002
C          9.86800         1.32605         1.07152
C          9.77410         4.21083         0.30537
C          8.56379         6.32350         0.19525
C          8.53843         7.80978        -0.01951
C          9.74974         5.69059         0.42848
C          9.73328         8.50328         0.64914
C          8.63108        10.60921        -0.11311
C          8.51734        12.11818        -0.01422
C          9.69542         9.99689         0.77866
C          9.69171        12.92534         0.49030
C          8.65620        14.95803        -0.49177
C          8.69336        16.37999        -0.93210
C          9.77720        14.32331        -0.01940
C          9.98768        17.12515        -0.77463
C          8.66305        19.16488        -0.13649
C          9.95356        18.66506        -0.75611
C         11.11769         2.02331         0.54866
C         11.06465         3.48263         0.22938
C         12.29346         1.37233         0.42037
C         12.29302         4.28716         0.38452
C         11.02729         6.41453         0.56493
C         11.03025         7.78301         0.66454
C         12.29244         5.66013         0.55000
C         12.32279         8.57630         0.53675
C         10.95708        10.76031         1.12725
C         10.93217        12.31436         1.21482
C         12.24739         9.99486         1.09692
C         12.26817        12.95095         0.77843
C         11.05340        15.00585         0.01120
C         11.13276        16.36664        -0.23088
C         12.26760        14.20401         0.21792
C         12.40479        17.08771        -0.03367
C         11.16174        19.27737        -0.02231
C         12.45731        18.54674        -0.28212
C         13.47125         2.12811        -0.16445
C         13.56266         3.50177         0.54932
C         14.81650         1.43617        -0.14992
C         14.77130         4.30110         0.05715
C         13.54892         6.37920         0.71700
C         13.52290         7.82688         1.16404
C         14.77458         5.74036         0.52675
C         14.82733         8.55031         0.88076
C         13.55351        10.75333         1.19550
C         13.55186        12.25808         1.15691
C         14.82600        10.05755         0.71697
C         14.90741        12.92763         1.05537
C         13.49757        14.81456        -0.37321
C         13.66704        16.28366        -0.13301
C         14.94857        14.35736         1.50624
C         14.96075        16.93107        -0.56389
C         13.65180        19.16087        -0.47647
C         14.93206        18.45520        -0.46274
C         15.99506         2.11757        -0.08822
C         16.07183         3.56007         0.39474
C         17.25090         1.47089        -0.41918
C         17.21519         4.36506        -0.15452
C         16.01650         6.43692         0.51544
C         16.01787         7.87410         0.66362
C         17.22694         5.74167         0.10074
C         17.28593         8.62268         0.56695
C         16.08108        10.70853         1.32344
C         16.07730        12.21889         1.05659
C         17.33116         9.96643         0.87872
C         17.38640        12.94848         0.78834
C         16.15303        15.28224         1.24418
C         16.14745        16.30971         0.13375
C         17.44973        14.42560         1.25155
C         17.41660        17.00383        -0.10674
C         16.09413        19.15397        -0.43213
C         17.43293        18.52973        -0.13731
C         18.36113         2.18922        -0.76644
C         18.29097         3.69201        -0.95470
C         19.59245         1.53973        -1.16490
C         19.63408         4.35263        -0.78388
C         18.44418         6.48320        -0.04828
C         18.50521         7.88044         0.20613
C         19.69515         5.72080        -0.27115
C         19.72802         8.55526         0.09133
C         18.61829        10.68302         1.00502
C         18.66348        12.19969         1.23376
C         19.84673         9.96997         0.46414
C         19.90036        12.85733         0.61164
C         18.77189        15.10101         1.02457
C         18.75008        16.42197         0.31417
C         20.09651        14.31764         0.96063
C         19.97009        17.23872         0.20161
C         18.60114        19.03132        -1.00247
C         19.92052        18.41921        -0.55219
C         20.72217         2.25464        -1.42527
C         20.78312         3.68260        -1.16027
C         22.02337         4.40582        -1.34596
C         21.03289         6.44412        -0.39877
C         21.07575         7.94902        -0.21891
C         22.11581         5.73859        -1.09702
C         21.58039         8.76294        -1.37837
C         20.92713        10.75678        -0.15075
C         20.98898        12.17045         0.10405
C         21.62733        10.13121        -1.21443
C         22.25182        12.87877        -0.14476
C         21.12553        15.05462         0.07523
C         21.29778        16.56321         0.54611
C         22.37715        14.21552        -0.03211
C         22.46821        17.22608        -0.12600
C         21.10314        19.01544        -1.02122
C         22.36201        18.39059        -0.82922
O          9.30106         9.16879         1.88260
O          3.97710         7.08802        -1.77291
O          7.03277        14.82004        -2.21976
O          6.54161        10.69500         1.19636
O         19.58898        10.08563         1.91689
O         18.23654        14.90165         2.37011
O          3.52913        11.78673        -2.64111
O          7.65834         4.10056         1.66822
O         14.28395        14.16133        -1.05970
O          4.48531         8.43433         1.58530
O          8.47903        12.70311         1.29359
O         18.22936        16.28156        -1.11601
O         13.16437        16.69260         1.16823
O         13.55427        11.51345         2.43789
O          2.57129        15.10268        -1.63118
O         20.64721         5.82526         0.87005
O          2.55301         3.88752         0.65444
O          9.56041        16.59719        -2.09049
O         11.51039        10.14467         2.33064
O         14.11927        14.71506         2.33146
O          6.74026        15.96944         0.99759
H          6.65379        16.76552         1.56445
O         16.30448         3.53452         1.82195
H         15.45957         3.26943         2.26035
O          7.81048        12.34763        -2.33871
H          7.37043        13.01910        -2.91514
O         13.70907         3.24413         1.97681
H         12.96850         2.66011         2.25227
O         10.01036        19.13997        -2.11464
H          9.47574        18.51245        -2.65620
O          2.03487        13.74711        -1.91753
H          3.73600        12.65519        -3.06501
O          2.15152         5.47272        -2.51987
H          2.67168         6.24374        -2.85222
O         10.89097        19.17371         1.38384
H         11.72979        19.27370         1.87894
O          9.13393        10.31948        -1.43787
H          8.59963        10.81852        -2.10443
O         18.75104        12.37643         2.66908
H         19.24469        11.59911         3.02223
O         13.29905         7.85758         2.59962
H         14.04266         7.39121         3.03491
O          3.74927        13.29922         1.23904
H          3.26115        12.68999         1.83009
O          9.95387         1.30073         2.51675
H          9.45428         2.06263         2.87722
O          4.63254        14.32526        -2.75675
H          3.84466        14.90278        -2.90690
O         18.37919        18.69623        -2.37502
H         18.47304        17.71722        -2.44696
O          7.05308        17.50001        -2.34221
H          7.14393        16.66918        -2.86413
O          8.55032         7.94304        -1.47211
H          9.48044         7.94501        -1.78103
O         15.10021        16.63062        -1.98526
H         16.01930        16.84351        -2.25474
O         16.17862        16.15632         2.41062
H         15.27380        16.08338         2.81252
O         20.61390        15.15775        -1.27076
H         20.38659        14.25758        -1.58575
O         21.95834         8.20288         0.91166
H         21.65787         7.61350         1.63816
O         10.77451        12.65479         2.59849
H         11.25949        11.97498         3.12185
O         17.91482         3.89760        -2.37014
H         18.54838         3.37918        -2.91125
O         14.72502         4.37895        -1.39470
H         13.95866         4.93906        -1.64069
O         13.14109         2.30428        -1.56339
H         13.88872         2.79478        -1.97958
O         12.58504         8.72655        -0.89298
H         12.69146         7.82860        -1.27466
O         20.64956        14.26528         2.30514
H         19.93764        13.85458         2.86345
O          7.49155         5.43964        -1.74089
H          7.66857         6.34745        -2.09328
O         17.75049        18.93559         1.22483
H         17.14070        18.46714         1.83635
O          4.39423         5.75339         1.54705
H          4.40466         6.73704         1.76077
O         10.29758         3.78429        -1.00811
O          3.77730         2.00200        -1.77046
H          3.29660         1.25673        -2.18847
O         14.89301        10.31689        -0.71533
H         14.14521         9.82439        -1.13506
O         21.59479        16.65674         1.94956
H         21.22225        15.86872         2.42246
O          7.08585         8.23571         1.87263
H          6.14099         8.48935         2.10063
O          6.40318         2.95953        -1.58289
H          6.71914         3.76575        -2.05838
O         16.05896        10.57966         2.76057
H         15.21713        10.98567         3.08508
O          5.64126         2.32301         1.95136
H          6.23683         3.04785         2.26249
O         17.46761        13.00586        -0.66315
H         16.60542        13.31171        -1.02475
H          0.22650         1.30981        -0.41075
H          0.56385         3.35273        -2.00730
H          2.26795         0.25077         0.41973
H         -0.01796         5.93917        -0.69521
H          0.07135         8.32727        -0.37719
H          0.14151        10.25067        -0.32246
H          0.22326        12.66137        -0.39705
H          0.92781        13.93554         1.44872
H          0.73189        16.36994         1.60430
H          1.83100        18.59733         1.58207
H          5.23099         0.34604        -0.68967
H          3.87147        19.97506         1.23682
H          7.41792         0.19779         0.78094
H          6.31515        20.04846         0.77142
H          9.86915         0.26132         0.72447
H          8.68726        20.14316         0.36840
H         12.37346         0.29630         0.63987
H         11.26003        20.35939        -0.31708
H         14.83374         0.38093        -0.47042
H         13.68797        20.25749        -0.58068
H         17.27959         0.36983        -0.46024
H         16.05837        20.25559        -0.40917
H         19.60072         0.44195        -1.23909
H         18.66026        20.14645        -0.93260
H         21.64459         1.74228        -1.73431
H         22.86949         3.86785        -1.79846
H         23.01684         6.30162        -1.37890
H         21.93985         8.28610        -2.30223
H         22.15270        10.75608        -1.95299
H         23.13840        12.25726        -0.33881
H         23.35272        14.69646        -0.19375
H         23.46427        16.81326         0.09182
H         21.04276        19.94951        -1.59752
H         23.26184        18.86709        -1.24456
