         317
 CSIRO Nanostructure Databank - Neutral Graphene Oxide Data Set
C         30.27321        31.73029        -0.62765
C         30.46215        32.95034        -0.73446
C         30.42579        36.14319        -0.55200
C         30.40029        37.37542        -0.46629
C         30.65030        40.68550        -0.44169
C         30.28375        41.86306        -0.70879
C         32.58915        29.06697         0.53463
C         31.52187        29.62628         0.26345
C         32.78346        31.61640        -0.41071
C         31.44557        30.78315        -0.69519
C         32.75397        33.07287        -0.37876
C         31.58866        33.80969        -0.52177
C         32.83405        35.99334        -0.32609
C         31.52183        35.23538        -0.06245
C         32.77663        37.48694        -0.70979
C         31.56712        38.23230        -0.00738
C         32.91123        40.31099         0.08266
C         31.61141        39.72932        -0.18674
C         33.03428        41.57489         0.67462
C         30.29238        43.22845        -0.92225
C         32.62842        44.17184        -0.13827
C         31.52139        43.89609        -0.59945
C         35.45221        27.39298         0.68430
C         35.18314        28.86170         0.60258
C         33.93381        29.36352        -0.09587
C         35.25302        31.58918        -0.07345
C         33.94707        30.92460        -0.14320
C         35.28628        33.06688        -0.08798
C         33.97528        33.80650         0.14994
C         35.31264        35.98075        -0.00824
C         33.98620        35.28375        -0.24048
C         35.32784        37.41272        -0.52420
C         34.07994        38.21145        -0.44563
C         35.43191        40.27257         0.10519
C         34.12202        39.55234        -0.18516
C         35.35898        41.76325        -0.29067
C         34.22034        42.41228         0.48946
C         35.25612        44.61246        -0.49326
C         34.02273        43.89484         0.17825
C         35.38650        46.02769         0.12724
C         37.85196        27.40021         0.66391
C         36.54554        26.85426         0.94910
C         37.80364        28.71405         0.16479
C         36.46071        29.37241        -0.21655
C         37.69865        31.59450        -0.60134
C         36.43674        30.88063        -0.14594
C         37.78252        32.98504         0.03502
C         36.47492        33.73082        -0.12165
C         37.84340        35.88944        -0.15777
C         36.54407        35.18569        -0.52770
C         37.79984        37.38076         0.15742
C         36.63946        38.11086        -0.51458
C         37.87992        40.33624        -0.02444
C         36.65098        39.64546        -0.60524
C         37.98218        41.83102        -0.33502
C         36.65260        42.53182        -0.11927
C         37.87965        44.68672         0.14073
C         36.60436        43.87883        -0.03718
C         37.63432        45.85584         1.22933
C         36.38886        46.46279         0.70064
C         40.38316        24.60433         1.68646
C         39.49253        25.45405         1.53137
C         40.32352        27.47339         0.50862
C         39.11107        26.58219         0.59035
C         40.27221        28.61196        -0.48299
C         38.99212        29.41953        -0.23825
C         40.20383        31.55155        -0.59497
C         38.99535        30.80979        -0.44809
C         40.21819        32.96937        -0.41737
C         39.05006        33.74673        -0.32864
C         40.30882        35.96115        -0.24029
C         39.07269        35.20691        -0.24277
C         40.31519        37.32913         0.40166
C         39.12215        38.09415        -0.18995
C         40.41433        40.31870         0.06268
C         39.11460        39.55494         0.22124
C         40.33968        41.69036         0.79549
C         39.12092        42.51918         0.38829
C         40.21157        44.49921         1.42088
C         39.08395        43.85720         0.59439
C         40.27942        46.04820         1.39554
C         38.86559        46.74167         1.31131
C         40.08155        48.72697         0.57104
C         39.03766        48.08314         0.74565
C         42.81463        24.55101         1.61609
C         41.59028        23.87872         1.88732
C         42.74593        27.39278         0.22913
C         41.54138        27.21084         1.08362
C         42.81882        28.69793        -0.56441
C         41.53588        29.48634        -0.25208
C         42.80969        31.59678        -0.93148
C         41.47525        30.80375        -1.01949
C         42.80247        33.06081        -0.56964
C         41.53509        33.47223         0.11522
C         42.82177        36.00194        -0.30400
C         41.51643        35.58339        -0.97571
C         42.86104        37.33989         0.39056
C         41.61307        38.14435         0.32285
C         42.83809        40.24019         1.05247
C         41.63565        39.49885         0.44487
C         42.86726        41.70538         0.73256
C         41.61341        42.48578         0.48189
C         42.83632        44.66132         0.90293
C         41.59194        43.86927         1.14513
C         42.69206        46.11423         0.48109
C         41.49662        46.80047         1.12634
C         42.68572        48.83487         0.56052
C         41.41908        48.38717         1.19339
C         43.68156        25.39189         1.32889
C         45.25214        27.16536        -0.09223
C         43.94822        26.50984         0.40053
C         45.24079        28.71396         0.22646
C         44.04816        29.47421        -0.20219
C         45.23892        31.66955        -0.14597
C         44.16425        30.83716        -0.84039
C         45.25738        33.12719        -0.45826
C         44.09485        33.81804        -0.44539
C         45.35049        36.00779        -0.24318
C         44.10621        35.31944        -0.75705
C         45.40685        37.39326         0.00637
C         44.17606        38.04764         0.53294
C         45.37562        40.28467         0.37057
C         44.18900        39.54793         0.78087
C         45.23992        41.66877        -0.20705
C         44.12442        42.41948         0.54113
C         45.23291        44.63222        -0.20912
C         44.11732        43.91730         0.51267
C         45.20067        46.15705        -0.11461
C         44.10592        46.84368         0.67850
C         43.74785        48.26330         0.32515
C         47.59222        27.37247         0.63168
C         46.56340        26.71554         0.47747
C         47.91710        28.82177         0.85836
C         46.50276        29.47757         0.57008
C         47.80391        31.74342         0.41997
C         46.46380        30.99824         0.39723
C         47.80009        33.09799        -0.31875
C         46.55005        33.81848        -0.78471
C         47.77117        36.03960        -0.77630
C         46.62715        35.21577        -0.14023
C         47.93367        37.37849        -0.01187
C         46.60785        38.11804         0.03504
C         47.74358        40.29450        -0.34658
C         46.69479        39.55435         0.50565
C         47.77917        41.74888         0.09168
C         46.52207        42.50591        -0.19205
C         47.90948        44.57652        -0.58676
C         46.52614        43.86222        -0.30095
C         47.65079        46.02731        -0.32165
C         46.59192        46.61938        -0.13317
C         50.41485        29.29470         0.66136
C         49.05502        29.38262        -0.00400
C         50.00771        31.55851        -0.67943
C         48.92187        30.90119        -0.17228
C         50.24822        32.99811        -0.26684
C         48.96845        33.75436        -0.51164
C         50.34242        35.84238        -0.24378
C         49.10433        35.19064        -0.97648
C         50.42062        37.35021        -0.65201
C         49.13983        38.13804        -0.58829
C         50.43076        40.38317        -0.28238
C         49.12937        39.64544        -0.48674
C         50.38133        41.72631         0.42627
C         49.05176        42.47326         0.38511
C         50.33674        44.40057         0.43109
C         49.04930        43.95664         0.17304
C         51.53351        29.67410         1.00212
C         52.77549        31.70422         0.54579
C         52.70225        30.45630         1.22242
C         52.59263        32.71121        -0.14686
C         51.56326        33.58648        -0.85093
C         52.69257        35.93993        -0.53254
C         51.63193        35.05610        -0.59389
C         52.85049        37.17076        -0.20661
C         51.76670        38.10262        -0.61935
C         52.82856        40.47118         0.09875
C         51.76363        39.59243        -0.41296
C         52.82640        41.68685         0.33220
C         51.68156        42.49762         0.76602
C         51.47263        43.96011         0.78684
O         45.61660        29.01352         1.64062
O         41.55181        33.91101         1.26074
O         42.71854        36.10437         1.15173
O         42.72460        32.61589        -1.95816
O         48.18660        41.97886         1.48013
O         36.12566        37.56002        -1.76540
O         44.66405        43.19275         1.67043
O         49.65033        37.64373        -1.86748
O         44.84849        45.48360        -1.33702
O         45.44335        31.53362         1.29984
O         34.34133        43.44675         1.51621
O         49.77994        40.37471        -1.58361
O         42.99004        26.26238        -0.68600
O         39.53947        46.66342         2.57013
O         44.47064        38.56216         1.87896
O         42.46049        44.23806         2.24664
O         50.95242        41.77841         1.77552
O         51.95556        39.00620        -1.71883
O         38.26005        39.94748         1.33224
O         35.21519        44.53617        -1.82125
O         38.21087        45.31759        -1.10166
H         37.38874        45.38134        -1.63977
O         37.92888        32.72947         1.46933
H         37.96756        33.59353         1.93184
O         41.39018        48.77736         2.54216
H         40.60281        48.34916         2.95511
O         39.24604        38.06798        -1.62350
H         39.90777        38.75079        -1.89106
O         40.13453        37.14822         1.83642
H         40.86196        36.54771         2.12759
O         38.30842        41.94642        -1.75577
H         37.56312        41.52567        -2.25633
O         40.56076        40.51655        -1.38313
H         39.77598        41.05793        -1.70477
O         50.19145        35.77328         1.17291
H         50.35021        34.83472         1.45122
O         49.07943        28.70167        -1.24820
H         49.76505        29.12508        -1.80927
O         41.61747        29.80589         1.15315
H         40.87141        30.39956         1.38746
O         35.62940        40.22615         1.52961
H         36.04814        39.37042         1.77592
O         34.94226        41.84594        -1.67108
H         35.04301        42.80422        -1.96314
O         35.42273        36.04544         1.43317
H         35.00022        35.23175         1.80930
O         44.64704        30.63493        -2.19487
H         43.89000        30.28564        -2.71913
O         31.69926        37.99467         1.38770
H         31.07892        38.57382         1.87613
O         40.21519        28.15728        -1.85145
H         39.73745        27.29219        -1.84874
O         47.27231        36.40457        -2.07649
H         47.87667        37.07280        -2.46955
O         41.64436        42.85309        -0.92572
H         41.58722        42.02438        -1.46290
O         44.20883        35.48364        -2.19025
H         44.96787        34.92737        -2.50261
O         39.01799        25.91438        -0.71068
H         38.10176        25.57252        -0.80387
O         53.65885        30.03859         2.04777
H         54.37564        30.69918         2.12640
O         32.57257        37.53677        -2.13471
H         31.68778        37.15792        -2.33142
O         50.47288        33.02047         1.17772
H         49.64958        32.67758         1.62649
O         40.32004        41.47072         2.20642
H         39.48397        41.00093         2.42929
O         48.07207        32.03694         1.81975
H         47.25740        32.45944         2.17803
O         41.71820        26.78192         2.35324
H         40.85917        26.75720         2.82131
O         39.89346        44.14075         2.78601
H         40.73508        44.14017         3.29628
O         36.53257        35.05893        -1.97519
H         36.60743        35.96678        -2.36083
O         48.16548        44.38460        -1.98221
H         47.48897        44.88374        -2.48801
O         46.56937        33.89418        -2.22894
H         47.37644        34.38450        -2.51796
O         44.49282        46.79208         2.03164
H         43.87063        47.32200         2.57258
O         42.86457        28.42564        -1.97934
H         43.63084        27.81872        -2.12887
O         44.76818        41.56897        -1.57958
H         45.46055        41.06562        -2.07222
O         37.52724        31.71561        -2.04137
H         38.29966        32.20147        -2.40550
O         31.55207        30.27408        -2.00987
H         30.71227        29.83033        -2.25025
O         48.22688        37.17286         1.39829
H         47.98606        38.01652         1.87265
O         35.20276        29.41208         1.90244
H         35.96378        29.04933         2.40007
O         31.38825        35.15335         1.37976
H         30.53210        34.71874         1.58054
O         42.39468        46.08027        -0.92857
H         42.39814        46.99979        -1.27265
O         48.22181        29.09495         2.20478
H         47.40517        28.94439         2.73125
O         36.63358        39.98055        -2.00101
H         36.09601        39.29257        -2.46219
O         41.49708        35.02268        -2.07266
O         33.87443        28.85212        -1.40252
H         33.07920        29.22936        -1.85253
O         33.83195        33.80465         1.61478
H         32.96204        34.23945         1.81736
O         37.53199        37.51080         1.56971
H         38.37037        37.31482         2.05770
O         45.28704        27.05519        -1.51215
H         45.24599        26.10776        -1.75882
O         46.86784        34.93825         1.25712
H         47.25352        35.75429         1.67180
O         37.37176        45.27102         2.48696
H         38.22084        45.17791         2.98299
O         47.20341        40.26128        -1.69500
H         47.93344        40.51385        -2.30687
O         36.32076        29.01383        -1.60653
H         36.71731        29.73676        -2.14409
O         51.64825        33.28204        -2.26471
H         52.20526        33.96125        -2.70121
O         32.07128        42.06198         1.47320
H         32.42718        42.87873         1.89809
O         29.23552        43.90603        -1.42053
H         29.45778        44.85161        -1.52661
O         41.31948        30.54870        -2.42969
H         40.90433        29.66102        -2.55504
O         41.55171        22.57175         2.19621
H         42.45375        22.19816         2.24594
O         47.14459        39.56467         1.90252
H         46.34318        39.41180         2.45452
O         42.61333        40.15546         2.48669
H         43.07239        39.34248         2.80758
O         50.91120        30.88883        -1.43579
H         51.49342        31.53621        -1.90693
O         49.39072        35.08736        -2.38219
H         49.60965        35.98709        -2.71933
