         349
 CSIRO Nanostructure Databank - Neutral Graphene Oxide Data Set
C          1.14893         2.15382         0.37262
C          1.08585         3.42119         0.91845
C          2.29679         1.37678         0.05251
C          2.24046         4.30677         1.15306
C          1.07087         6.49117         0.17677
C          1.17582         7.79215        -0.18781
C          2.24303         5.76867         0.72117
C          2.42558         8.54306        -0.14209
C          1.43095        10.60157        -1.14056
C          1.46410        11.95241        -1.17414
C          2.54425         9.83716        -0.61557
C          2.64422        12.70025        -0.58189
C          1.44461        14.89594        -0.84451
C          1.42170        16.28644        -0.93639
C          2.65338        14.15983        -1.00333
C          2.57645        17.01125        -1.26200
C          2.60875        18.42617        -1.19398
C          3.56827         1.61274         0.62204
C          3.56258         3.65212         1.28248
C          4.84461         1.28173         0.18211
C          4.79288         4.18059         0.92827
C          3.56841         6.37092         0.34359
C          3.63449         7.84900         0.29470
C          4.83790         5.60969         0.51292
C          4.82206         8.51009         0.51269
C          3.93980        10.45902        -0.71236
C          3.90108        11.95307        -0.96364
C          4.75409        10.03328         0.58126
C          4.99599        12.63957        -1.41882
C          3.83161        14.81986        -1.34294
C          3.77975        16.26873        -1.78841
C          5.09893        14.10866        -1.29885
C          5.09825        17.01127        -1.54181
C          3.79330        19.13647        -1.23297
C          5.05967        18.46770        -1.25356
C          6.03634         2.00022         0.58376
C          5.99520         3.40781         0.87944
C          7.27896         1.36350         0.33922
C          7.26044         4.16692         1.01006
C          6.08725         6.36677         0.71097
C          6.06665         7.78532         0.68252
C          7.28624         5.64679         0.88651
C          7.29344         8.49693         0.75919
C          6.13434        10.68796         0.67294
C          6.23394        12.13348         0.70532
C          7.29493         9.92966         0.62821
C          7.40478        12.78749         0.28412
C          6.27215        14.76964        -0.95174
C          6.33917        16.24582        -1.12397
C          7.56276        14.06413        -0.55642
C          7.48030        17.01529        -0.60594
C          6.23648        19.13019        -0.96843
C          7.46479        18.43292        -0.68695
C          8.53589         2.02889         0.32843
C          8.57926         3.43259         0.79905
C          9.68704         1.42393        -0.13830
C          9.78778         4.23122         0.54737
C          8.52154         6.33875         0.91923
C          8.53179         7.77505         0.91607
C          9.77307         5.62860         0.79827
C          9.76064         8.46559         1.07268
C          8.65335        10.57536         0.40752
C          8.64221        12.07723         0.45981
C          9.67337         9.95557         1.35883
C          9.80623        12.79544         0.66213
C          8.61287        14.95075         0.06800
C          8.62705        16.33609        -0.08038
C          9.72507        14.29506         0.84421
C          9.83213        17.08969         0.20785
C          8.64190        19.15411        -0.39934
C          9.84028        18.49250        -0.03770
C         10.95860         2.16991        -0.41786
C         10.97443         3.58436         0.13042
C         12.20605         1.41339        -0.03837
C         12.18314         4.27557         0.13323
C         10.99396         6.35521         0.75033
C         10.99820         7.77674         0.97488
C         12.21530         5.66533         0.47655
C         12.24125         8.47385         0.96671
C         11.01006        10.69240         1.34472
C         11.04763        12.13248         0.98068
C         12.30728         9.91213         1.24950
C         12.24337        12.83487         0.96706
C         11.05370        14.99991         0.69349
C         11.05513        16.42757         0.53853
C         12.24529        14.27579         0.80494
C         12.27694        17.16603         0.64827
C         11.07736        19.19240        -0.01594
C         12.28948        18.57066         0.28229
C         13.42210         2.06649        -0.01947
C         13.44044         3.55415        -0.32666
C         14.67085         1.40268         0.10278
C         14.65130         4.21702         0.32360
C         13.42847         6.40275         0.40547
C         13.44958         7.80630         0.62839
C         14.65581         5.69402         0.01056
C         14.66859         8.54855         0.49661
C         13.52086        10.65869         0.91129
C         13.55370        12.13096         1.26619
C         14.66581         9.96447         0.52600
C         14.78062        12.86397         0.77153
C         13.49317        14.99229         0.84892
C         13.47629        16.41341         0.91834
C         14.74857        14.31546         0.82832
C         14.71209        17.04495         1.21996
C         13.50391        19.33005        -0.03012
C         14.70978        19.12644         0.58384
C         15.92555         2.09015         0.03787
C         15.95532         3.51623         0.06765
C         17.15463         1.39015        -0.01814
C         17.18198         4.22415         0.12028
C         15.96471         6.41704         0.01851
C         15.97993         7.81508         0.59300
C         17.21798         5.65528         0.17371
C         17.20072         8.54685         0.13790
C         15.76341        10.76330        -0.15715
C         15.92129        12.16712         0.42592
C         17.12555         9.95983        -0.38505
C         17.17457        12.87958         0.25781
C         15.94507        15.06417         0.73343
C         15.96047        16.46195         0.98478
C         17.20970        14.31245         0.65206
C         17.20311        17.30973         0.91021
C         16.04693        19.53598         0.23374
C         17.17625        18.76537         0.48439
C         18.39455         2.07394         0.00667
C         18.41722         3.50353         0.11304
C         19.62780         1.36890        -0.06233
C         19.65822         4.20542         0.23622
C         18.43414         6.36008         0.31740
C         18.42641         7.83959         0.19493
C         19.64581         5.63668         0.41001
C         19.64842         8.52371         0.04482
C         18.34240        10.74115         0.06662
C         18.33897        12.22254        -0.03506
C         19.63559        10.00378         0.11026
C         19.59954        12.97588        -0.38679
C         18.50367        15.06167         0.68068
C         18.50027        16.57342         0.64319
C         19.79950        14.30883         0.37329
C         19.48108        17.29385        -0.30292
C         18.46086        19.40920         0.37985
C         19.64938        18.71659         0.16475
C         20.84939         2.05008        -0.01813
C         20.86590         3.46047         0.14683
C         22.11097         1.31463        -0.16373
C         22.22857         4.07788         0.35614
C         20.92660         6.36310         0.58302
C         20.91617         7.89492         0.57745
C         22.21870         5.61102         0.40005
C         22.21757         8.52720         0.11419
C         20.88478        10.73457        -0.26072
C         20.90199        12.21312        -0.25425
C         22.17062         9.97065        -0.22734
C         22.09901        12.92496        -0.38801
C         20.87144        15.07679        -0.37743
C         20.80385        16.54939        -0.58019
C         22.16140        14.34666        -0.41406
C         22.11618        17.32073        -0.77744
C         20.92847        19.30184         0.27935
C         22.13072        18.64540        -0.03717
C         23.29334         1.93749        -0.39761
C         23.28342         3.42653        -0.52556
C         24.58432         1.20504        -0.69276
C         24.52638         4.17387        -0.87960
C         23.39002         6.38736        -0.13910
C         23.40598         7.86167         0.10171
C         24.58470         5.68112        -0.72882
C         24.72118         8.54830        -0.01632
C         23.42920        10.76075        -0.13342
C         23.36045        12.17603        -0.61448
C         24.73716        10.04551        -0.09694
C         24.65762        12.91793        -0.69754
C         23.38313        15.09278        -0.49964
C         23.37091        16.49523        -0.49764
C         24.65314        14.37938        -0.51808
C         24.67699        17.25580        -0.60898
C         23.36374        19.25882         0.23147
C         24.61585        18.62827         0.03963
C         25.80638         2.05793        -0.24931
C         25.82103         3.41295        -0.94239
C         27.12437         1.34961        -0.36893
C         27.11008         4.17639        -0.97800
C         25.91006         6.35272        -0.75939
C         25.95120         7.80371        -0.43288
C         27.09541         5.66212        -0.91017
C         27.12759         8.58047        -0.94722
C         25.96614        10.76860        -0.50514
C         25.92715        12.16204        -0.57004
C         27.19814        10.04871        -0.71771
C         27.13541        12.91423        -0.59376
C         25.86786        15.03236        -0.30593
C         25.88804        16.47259        -0.14671
C         27.10435        14.28586        -0.32682
C         27.03279        17.13784         0.22905
C         25.80398        19.27327         0.37252
C         27.05985        18.58410         0.38657
C         28.32066         2.04877        -0.41222
C         28.35234         3.48540        -0.57553
C         29.58043         1.36587        -0.22942
C         29.54334         4.20419        -0.45994
C         28.37754         6.34220        -0.87925
C         28.40002         7.79389        -1.17370
C         29.56906         5.65101        -0.64501
C         29.71350         8.51984        -1.15619
C         28.39582        10.73397        -0.86626
C         28.40043        12.19839        -0.81136
C         29.70696        10.06164        -1.04855
C         29.73686        12.92837        -0.45289
C         28.31929        14.91764         0.20647
C         28.25205        16.38798         0.59602
C         29.63229        14.27671         0.11841
C         29.53045        17.09255         0.74981
C         28.26265        19.22217         0.67606
C         29.50846        18.51265         0.80758
C         30.74687         2.06660        -0.10921
C         30.76870         3.49784        -0.20172
C         31.96847         4.21926        -0.08797
C         30.83475         6.35415        -0.52689
C         30.90290         7.78354        -0.69521
C         31.99379         5.60485        -0.23079
C         32.06742         8.53124        -0.45374
C         30.92599        10.72604        -0.51550
C         30.90999        12.10327        -0.14146
C         32.07771         9.92738        -0.37050
C         31.98098        12.76533         0.51662
C         30.75968        14.90704         0.65167
C         30.73423        16.35845         0.90407
C         31.94223        14.11595         0.82075
C         31.91862        17.08414         1.15312
C         30.72037        19.19573         1.05459
C         31.90144        18.47930         1.23407
O         15.26091         6.17936        -1.23210
O         17.96272        14.52745         1.92704
O          3.52402         2.38478         1.82755
O         23.55940         6.27414        -1.60016
O         23.93184        12.43999        -1.92389
O         28.04098        15.35904         1.61276
O         23.52526         3.81989        -1.90025
O         27.52692         8.17284        -2.28671
O          4.21508         5.76010        -0.83773
O         18.94331        10.40543         1.36617
O         29.92207         9.36854        -2.31734
O         29.24965        12.81654        -1.82880
O          8.04983         3.65256         2.14570
O         21.47311        10.17196        -1.50886
O         15.19969        11.01287        -1.42191
O         21.77614         5.97769         1.74658
O         11.72919        10.35701         2.58164
O         26.52278         3.53498        -2.19501
O         18.24433        17.14017         1.94721
O         14.67383        18.33100         1.75177
O         24.12977        10.62940         1.13422
O         25.69133         8.05714         0.99540
O         20.55951        15.63091        -1.70810
O          6.08174        16.65185        -2.55523
O          2.08831         5.40621         2.12866
O         25.62033         2.37696         1.16549
H         25.70375         1.54290         1.67349
O          9.34876        14.50023         2.26608
H         10.08754        14.15448         2.81216
O          5.18842        12.83383         1.21218
H          5.37362        13.79366         1.18164
O         24.89150        17.49003        -2.04225
H         24.01573        17.77338        -2.41015
O          8.19962        13.60892        -1.79883
H          7.52845        13.07528        -2.28663
O         19.44114        13.30375        -1.79739
H         19.46267        12.46938        -2.31262
O         11.03156         2.33276        -1.90063
H         10.20213         2.77065        -2.18930
O         18.76835        17.38395        -1.56657
H         19.07008        16.62647        -2.12368
O         13.70819        12.15628         2.73141
H         12.97963        11.59676         3.10083
O         20.41497        14.01308         1.64308
H         19.68272        13.86230         2.28839
O          4.60799         9.79592        -1.83329
H          3.97068         9.73559        -2.57598
O         22.66679         3.64074         1.68089
H         22.18886         4.20279         2.33421
O         24.61198        -0.06057        -0.02699
H         24.20852         0.04832         0.85835
O          3.60707        16.23167        -3.24383
H          4.51292        16.14314        -3.62258
O         17.26519         9.80488        -1.81716
H         16.42502        10.21854        -2.19499
O         14.41864         4.12423         1.76300
H         15.18714         4.51838         2.22746
O         16.17517         7.57692         2.04146
H         16.43100         8.42726         2.46028
O          2.49791        12.66704         0.87673
H          1.61528        13.03084         1.09991
O          3.96444        10.36988         1.72782
H          3.63696        11.29705         1.62451
O          9.06943        10.21581        -0.94193
H          8.68253        10.86798        -1.56407
O          9.12838        10.11322         2.69061
H          9.85975         9.92795         3.32142
O          6.03932        11.98992        -2.02361
H          5.79285        11.02612        -2.08986
O         22.17612        17.66486        -2.20079
H         21.80310        16.88830        -2.68122
O         13.52847         3.70274        -1.75706
H         12.74904         3.23092        -2.14097
O         20.85999         8.31612         1.98204
H         21.41700         7.68091         2.49060
H          0.18140         1.70926         0.08608
H          0.09370         3.85515         1.10711
H          2.17273         0.53700        -0.64604
H          0.09543         5.98444         0.15292
H          0.27419         8.31041        -0.54470
H          0.52770        10.07237        -1.48215
H          0.60882        12.51340        -1.57866
H          0.53186        14.36789        -0.53179
H          0.50207        16.83099        -0.67491
H          1.66310        18.96439        -1.02818
H          4.95793         0.51524        -0.59836
H          3.78211        20.22971        -1.11724
H          7.25601         0.31641         0.00299
H          6.21955        20.22158        -0.82896
H          9.63350         0.38141        -0.48854
H          8.64507        20.24747        -0.51769
H         12.14452         0.32963         0.14363
H         11.08035        20.25101        -0.31496
H         14.68055         0.30485         0.19027
H         13.43415        20.05173        -0.85782
H         17.15036         0.29103        -0.06638
H         16.19045        20.51955        -0.24164
H         19.61574         0.27450        -0.17203
H         18.49471        20.50477         0.48861
H         22.06440         0.21453        -0.14591
H         20.99368        20.31700         0.70254
H         24.66553         1.00856        -1.79347
H         23.35493        20.26633         0.67867
H         27.13664         0.25907        -0.21823
H         25.77458        20.31983         0.71432
H         29.57701         0.26918        -0.15019
H         28.27158        20.31374         0.81408
H         31.69716         1.53808         0.05591
H         32.90535         3.67792         0.10696
H         32.96145         6.11479        -0.13637
H         33.00776         8.01245        -0.22351
H         33.02828        10.40978        -0.10331
H         32.89574        12.20406         0.75346
H         32.83406        14.57178         1.27169
H         32.87565        16.55852         1.27207
H         30.72343        20.29334         1.11292
H         32.83928        19.01773         1.42987
