         314
 CSIRO Nanostructure Databank - Neutral Graphene Oxide Data Set
C         30.31755        57.26011        -0.51098
C         30.28621        58.65424        -0.51190
C         29.16490        59.40241        -0.98040
C         30.41723        61.52199        -0.89086
C         29.23723        60.77810        -1.13896
C         32.76366        52.89399        -0.04313
C         32.76666        54.33925        -0.10933
C         31.53667        55.09500        -0.26459
C         32.71611        57.21499         0.19431
C         31.48580        56.48330        -0.19426
C         32.71891        58.72118         0.22016
C         31.46505        59.45176        -0.09316
C         32.79728        61.58423        -0.17284
C         31.57483        60.89548        -0.42611
C         35.25086        48.59482         0.12854
C         35.21909        50.01119         0.13382
C         33.99272        50.70556         0.09372
C         35.17968        52.80105         0.51074
C         33.91031        52.12313         0.19435
C         35.22396        54.28828         0.16164
C         33.99244        55.02301        -0.16396
C         35.26784        57.30282        -0.03043
C         34.02933        56.49042         0.04568
C         35.21277        58.70344         0.45275
C         34.01442        59.42895        -0.12344
C         35.25244        61.58787         0.26253
C         34.01178        60.92342         0.08400
C         37.75411        44.37368         0.29915
C         37.73525        45.76500         0.20266
C         36.50777        46.48870         0.21395
C         37.70540        48.61765        -0.36380
C         36.45770        47.87482         0.05323
C         37.73976        50.04270         0.14444
C         36.49994        50.73012         0.24724
C         37.70742        52.89744         0.69080
C         36.46670        52.10733         0.46952
C         37.72216        54.27901         0.13848
C         36.52555        54.72465        -0.33312
C         37.74379        57.40834        -0.13664
C         36.46612        56.85785        -0.51021
C         37.76185        58.71171         0.33751
C         36.50069        59.44824         0.56292
C         37.74860        61.56448         0.45713
C         36.49643        60.92337         0.41333
C         40.21223        40.06342         0.38799
C         40.21320        41.47280         0.35668
C         38.99462        42.23751         0.37847
C         40.22053        44.38078         0.33875
C         38.97654        43.63441         0.33013
C         40.24324        45.76100         0.20340
C         38.99373        46.50642         0.09426
C         40.24976        48.64164        -0.36609
C         38.98441        47.86697        -0.09785
C         40.20910        50.06200         0.14647
C         38.99575        50.71133         0.32005
C         40.26683        52.94354         0.36132
C         39.02397        52.16482         0.65231
C         40.24979        54.35131         0.16887
C         38.97852        55.01661        -0.15516
C         40.23750        57.27215         0.17305
C         38.98568        56.60915        -0.25077
C         40.19526        58.67172         0.48158
C         39.00167        59.40125         0.50412
C         40.22414        61.53374         0.52036
C         38.98204        60.85914         0.56038
C         42.61526        35.74204         0.66763
C         42.61760        37.12818         0.57242
C         41.43142        37.90426         0.51769
C         42.64937        40.03851         0.17961
C         41.42382        39.32328         0.35300
C         42.68225        41.45409         0.23244
C         41.46103        42.16222         0.34956
C         42.78975        44.35638         0.40329
C         41.46821        43.61970         0.53594
C         42.74352        45.79955         0.12255
C         41.50316        46.49144         0.12035
C         42.72681        48.61142        -0.03467
C         41.50436        47.89695        -0.00124
C         42.74449        50.05097         0.07640
C         41.49309        50.75039         0.56350
C         42.68002        52.97627         0.11225
C         41.48065        52.24880         0.30287
C         42.69691        54.38079         0.09331
C         41.46574        55.09820         0.11838
C         42.69781        57.27519         0.43225
C         41.44562        56.54832         0.21410
C         42.68915        58.63209         0.71262
C         41.42066        59.37888         0.99534
C         42.67718        61.52224         0.46333
C         41.45447        60.84914         0.60780
C         45.05580        32.97571        -0.24695
C         43.87087        33.59356         0.06297
C         45.20214        35.65597         0.69546
C         43.85907        34.94201         0.63945
C         45.20366        37.15645         0.73485
C         43.91606        37.81142         0.30147
C         45.17079        40.02163        -0.00379
C         43.89782        39.28249         0.00450
C         45.14672        41.42295        -0.12120
C         43.94271        42.16800         0.06511
C         45.20343        44.29443        -0.19496
C         43.99942        43.58396         0.04530
C         45.20639        45.73798        -0.20200
C         43.95228        46.48586        -0.12422
C         45.18190        48.65265        -0.40991
C         43.93721        47.89568        -0.21688
C         45.20913        50.08444        -0.08687
C         43.94803        50.74734         0.04829
C         45.23404        52.94834         0.20517
C         43.94584        52.22504        -0.01919
C         45.23526        54.41212         0.38768
C         43.99991        55.13142        -0.15338
C         45.16415        57.20445         0.47859
C         43.95896        56.56068         0.31818
C         45.21561        58.66494         0.68653
C         43.93361        59.40694         0.82395
C         45.14959        61.52242         0.33360
C         43.92812        60.86066         0.51832
C         46.31017        33.64762        -0.20152
C         47.60043        35.74537        -0.02521
C         46.40281        34.99731         0.14323
C         47.75175        37.12493         0.23256
C         46.50015        37.89510         0.60650
C         47.54072        40.10237         0.34080
C         46.39668        39.33486         0.21200
C         47.72426        41.36605        -0.32014
C         46.38190        42.12477        -0.48450
C         47.66950        44.22664        -0.53593
C         46.44309        43.59092        -0.41842
C         47.66539        45.68850        -0.54017
C         46.41507        46.40621        -0.29336
C         47.64536        48.56154         0.26152
C         46.47769        47.88185        -0.37075
C         47.63878        50.01881         0.40304
C         46.44901        50.73156         0.16043
C         47.62700        52.85136         1.15937
C         46.40200        52.13717         0.64881
C         47.55433        54.35777         1.43761
C         46.39754        55.06361         0.70847
C         47.63314        57.22206         0.58344
C         46.43199        56.51213         0.57064
C         47.67349        58.63640         0.30971
C         46.37682        59.34804         0.01657
C         47.61865        61.49817         0.11271
C         46.40099        60.84364         0.23211
C         49.01426        37.70385        -0.07786
C         50.33449        39.89880        -0.39157
C         49.39784        39.05184         0.19029
C         50.24808        41.36079        -0.36276
C         49.02491        42.05343        -0.30363
C         50.22086        44.21656        -0.36422
C         48.97339        43.48117        -0.81583
C         50.22235        45.68475        -0.24388
C         48.96147        46.44886        -0.41927
C         50.23323        48.49697         0.35634
C         48.96552        47.78162         0.26760
C         50.19605        49.86457         0.88951
C         48.83759        50.67873         0.94226
C         50.13961        52.84097         0.92048
C         48.92603        52.16327         0.98247
C         50.18607        54.31151         1.05161
C         48.91462        55.06052         1.27747
C         50.18023        57.13587         0.43348
C         48.90591        56.52494         0.91099
C         50.13690        58.60997         0.08149
C         48.85438        59.33755         0.15588
C         50.07202        61.45239        -0.19594
C         48.86157        60.78159         0.00543
C         51.47416        42.11473        -0.55678
C         52.71357        44.28326        -0.47955
C         51.51580        43.50523        -0.53648
C         52.73522        45.68798        -0.39550
C         51.46616        46.48934        -0.65564
C         52.67664        48.52106         0.16449
C         51.44568        47.87091        -0.00870
C         52.68349        49.91410         0.63076
C         51.40787        50.67848         0.72537
C         52.61498        52.77356         0.40771
C         51.36386        52.05422         0.70891
C         52.61662        54.27728         0.71549
C         51.37978        55.04331         1.04165
C         52.58534        57.34559         0.92612
C         51.44397        56.50641         0.90022
C         52.55347        58.72846         0.48965
C         51.38120        59.37746         0.14308
C         52.54408        61.48838        -0.36250
C         51.34297        60.79938        -0.14278
C         53.92700        46.42971        -0.27314
C         55.15187        48.57103        -0.09900
C         53.92782        47.83848        -0.06114
C         55.21224        49.96456         0.06535
C         53.99180        50.65697         0.53428
C         55.09332        52.83941         0.21553
C         53.92108        52.11104         0.39256
C         55.09431        54.24049         0.53736
C         53.92964        54.73869         1.08088
C         55.10616        57.35367         0.85989
C         53.90736        56.88459         1.32013
C         55.13351        58.78919         0.54087
C         53.80905        59.51901         0.46452
C         55.02328        61.47055        -0.46282
C         53.80724        60.85607        -0.17929
C         56.38414        50.74430        -0.07900
C         57.56194        52.91812         0.16541
C         56.37574        52.15253         0.08095
C         57.58635        54.32707         0.30384
C         56.29197        55.11235         0.27218
C         57.44458        57.14455        -0.01720
C         56.39979        56.53183         0.93661
C         57.50683        58.65024        -0.11241
C         56.33723        59.40507        -0.01911
C         57.49910        61.41933        -0.72699
C         56.29372        60.79290        -0.37374
C         58.78296        55.05125         0.27745
C         59.96123        57.17675        -0.07612
C         58.78935        56.46733         0.12907
C         59.96748        58.57850        -0.38844
C         58.72771        59.30269        -0.41916
C         59.96301        61.34823        -0.99207
C         58.72250        60.70614        -0.70663
C         61.16181        59.26168        -0.65928
C         61.14971        60.63470        -0.96545
O         44.80984        59.11067         2.00249
O         48.38819        46.36222        -1.72186
O         53.51896        50.14188         1.83481
O         50.21204        44.88376         0.96429
O         56.92747        56.72419        -1.35240
O         49.44273        50.05092         2.11124
O         31.92920        59.23601         1.30972
O         44.65818        35.04364         1.89579
O         46.70311        52.16179         2.07158
O         50.15580        57.54810        -0.96261
O         48.10118        47.82266         1.44355
O         38.42312        52.57034         1.93118
O         33.38103        56.71205         1.38589
O         53.97620        55.70728         2.07947
O         48.56017        39.66588         1.16599
O         45.87692        37.67304         1.92435
O         36.47367        55.71149        -1.31836
O         39.06885        55.74515        -1.41470
O         49.05100        56.10894         2.31178
O         42.24363        44.02459         1.72893
O         47.04988        41.49638        -1.63182
O         52.52383        53.77446        -0.65919
O         45.97783        48.37802        -1.64135
O         43.91988        38.26664        -1.09364
O         56.10517        55.51155        -1.15208
O         35.71962        59.01281         1.76582
O         35.18752        53.82325         1.55237
O         54.58514        59.54274         1.70766
O         44.80110        52.63081        -1.17282
O         51.37697        46.70450        -2.02798
O         41.28495        59.36622         2.46258
H         40.44849        59.82875         2.68469
O         46.13077        59.15689        -1.41554
H         46.91742        59.48093        -1.90322
O         56.89050        56.47184         2.27013
H         56.13582        56.28006         2.86635
O         34.13337        59.22938        -1.57584
H         34.82191        59.83883        -1.91702
O         47.18764        54.47085         2.82867
H         47.57907        55.31013         3.16657
O         37.59995        48.74672        -1.82870
H         38.50452        48.98933        -2.15278
O         40.32864        48.78559        -1.85302
H         40.55940        47.90483        -2.22054
O         41.54456        50.60670         2.02875
H         40.77041        51.07950         2.40518
O         44.15778        55.20796        -1.60426
H         44.33308        54.28491        -1.91406
O         49.07585        43.39156        -2.26563
H         48.34550        42.80239        -2.56741
H         29.41190        56.71877        -0.82696
H         28.24103        58.86970        -1.24900
H         30.42332        62.60223        -1.09624
H         28.35306        61.31539        -1.51109
H         31.80882        52.37358        -0.21506
H         30.60883        54.53626        -0.46273
H         32.79112        62.68477        -0.22108
H         34.30415        48.04291         0.23743
H         33.06774        50.12699        -0.05225
H         35.25190        62.68956         0.25899
H         36.80179        43.82429         0.34383
H         35.57375        45.93491         0.39719
H         37.78727        62.66266         0.38695
H         39.25613        39.52581         0.46925
H         38.03864        41.69330         0.39844
H         40.23212        62.62443         0.36930
H         41.65517        35.20581         0.72092
H         40.46681        37.39242         0.65313
H         42.66110        62.60545         0.26212
H         45.03705        31.94569        -0.63149
H         42.91287        33.08935        -0.13027
H         45.14444        62.61979         0.23432
H         47.20782        33.11848        -0.55263
H         48.48753        35.19355        -0.37506
H         47.65309        62.59811         0.14363
H         49.73829        37.05525        -0.59661
H         51.13938        39.46745        -1.00615
H         50.05536        62.54239        -0.34536
H         52.41362        41.54896        -0.65083
H         53.67351        43.74261        -0.42337
H         52.51247        62.54009        -0.68447
H         54.89702        45.91060        -0.34156
H         56.07530        48.02424        -0.34478
H         55.01943        62.50138        -0.84932
H         57.33960        50.23753        -0.28549
H         58.52775        52.39115         0.10693
H         57.50060        62.48268        -1.00916
H         59.74351        54.51233         0.27458
H         60.92506        56.64539        -0.03871
H         59.96812        62.42307        -1.22350
H         62.11604        58.71618        -0.63345
H         62.09861        61.14583        -1.18042
