         276
 CSIRO Nanostructure Databank - Neutral Graphene Oxide Data Set
C        -11.17667         0.63890        -0.24139
C         -9.96442         1.42866        -0.33506
C         -8.62653         0.72483        -0.47872
C         -7.57965         1.48624         0.36333
C         -6.28746         0.80109         0.68309
C         -4.98030         1.47740         0.51900
C         -3.77444         0.65054         0.23415
C         -2.42726         1.25935         0.57039
C         -1.22704         0.59432        -0.10838
C          0.05451         1.36315        -0.25719
C          0.96379         0.71145        -1.37170
C          2.34179         1.27953        -1.37512
C          3.49552         0.68855        -0.97285
C          4.76857         1.48610        -0.87285
C          5.86900         0.62906        -0.33142
C          6.99108         1.34287         0.36200
C          8.19371         0.49273         0.60172
C          9.24872         1.32630         1.28316
C         10.61904         0.75434         0.99497
C         -9.98392         2.79406        -0.40152
C         -8.71370         3.57096        -0.54487
C         -7.55343         2.97422         0.21036
C         -6.22646         3.74954         0.38370
C         -4.98675         2.89012         0.02276
C         -3.65032         3.54764        -0.06371
C         -2.42339         2.82916         0.47759
C         -1.13879         3.61423         0.63875
C          0.23655         2.90286         0.43883
C          1.18591         3.83865        -0.29284
C          2.48701         3.42797        -0.78429
C          3.74741         3.84518        -0.39107
C          4.94609         3.00992        -0.73279
C          6.33196         3.64932        -0.38899
C          7.45956         2.61808        -0.30756
C          8.47528         3.77965         1.82985
C          8.94402         2.80782         0.86610
C         -8.64600         5.01606        -0.91013
C         -7.40364         5.80400        -0.62171
C         -6.21963         5.10856        -0.26788
C         -4.92195         5.73102        -0.72254
C         -3.62004         5.04101        -0.26020
C         -2.43082         5.81338         0.19722
C         -1.18286         5.17170         0.79206
C         -0.03931         5.96379         0.21207
C          0.94012         5.22683        -0.59657
C          2.78960         5.87635         0.95014
C          3.92163         5.11317         0.29238
C          5.10955         5.80129         0.25970
C          6.40263         5.11603        -0.02990
C          7.55366         5.80539         0.64661
C          8.42711         5.20692         1.48768
C         -7.38119         7.18524        -0.79994
C         -6.22277         7.97406        -0.24209
C         -4.89592         7.25876        -0.51408
C         -3.69453         8.01806        -0.06570
C         -2.51484         7.28682         0.46396
C         -1.25231         8.05310         0.72109
C          0.00925         7.30516         0.46568
C          1.30805         8.03867         0.73590
C          2.56142         7.25377         0.36727
C          3.84801         7.97028         0.11518
C          5.11749         7.26952         0.64207
C          6.35136         8.03204         0.11177
C          7.68485         7.31324         0.46596
C         -6.07600         9.42557        -0.65524
C         -4.96179        10.11605        -0.35424
C         -3.81429         9.46990         0.40010
C         -2.45378        10.15860         0.26982
C         -1.26993         9.52044         0.44922
C          0.05100        10.28569         0.57870
C          1.33364         9.49301         0.31566
C          2.49926        10.13304         0.07802
C          3.85509         9.47933        -0.14447
C          5.03902        10.10994         0.55683
C          6.21006         9.45638         0.63671
C        -11.18763        -0.72254        -0.16345
C         -9.98495        -1.52271        -0.09288
C         -8.63604        -0.84716        -0.26549
C         -7.61951        -1.38007         0.75222
C         -6.31495        -0.68071         0.82796
C         -5.13962        -1.48076         0.25871
C         -3.83722        -0.70556         0.13230
C         -2.63632        -1.46623        -0.19396
C         -1.59147        -0.65106        -0.99961
C         -0.31229        -1.53142        -1.50013
C          0.99418        -0.80793        -1.16133
C          2.29505        -1.55419        -1.25849
C          3.57064        -0.76887        -1.33909
C          4.87343        -1.48150        -1.39797
C          5.99906        -0.80501        -0.68367
C          7.36925        -1.42120        -0.79125
C          8.37091        -0.76386         0.13726
C          9.65330        -1.43699         0.33821
C         10.77237        -0.55969         0.70727
C         -9.99943        -2.88833         0.00486
C         -8.78495        -3.67382         0.39968
C         -7.59428        -2.88401         0.87531
C         -6.26854        -3.56299         1.14223
C         -4.97550        -2.79733         0.99512
C         -3.66937        -3.51110         0.78605
C         -2.55445        -2.80063         0.07778
C         -1.26057        -3.52588        -0.03608
C         -0.22420        -2.98908        -0.98656
C          1.07234        -3.74229        -1.15575
C          2.27704        -3.00481        -1.80232
C          3.64567        -3.75624        -1.65513
C          4.93392        -2.98874        -1.46117
C          6.19837        -3.63227        -0.97191
C          7.31883        -2.92325        -0.66184
C          8.68613        -3.58227        -0.61213
C          9.76379        -2.77188         0.08563
C         -8.54595        -5.09383         0.05232
C         -7.37698        -5.75824         0.34764
C         -6.21995        -5.05574         0.97945
C         -4.88063        -5.67925         0.84400
C         -3.70959        -4.99234         0.75299
C         -2.46473        -5.80453         0.42816
C         -1.18628        -4.97650         0.32724
C          0.03959        -5.80220        -0.05180
C          1.30546        -4.96970        -0.30604
C          2.59122        -5.73148        -0.42721
C          3.61423        -5.28264        -1.45240
C          5.00268        -5.92028        -1.21257
C          6.26812        -5.11917        -1.03631
C          7.50287        -5.76913        -0.51033
C          8.60081        -5.03685        -0.22620
C         -7.17400        -7.14504        -0.04805
C         -6.01229        -7.84059         0.19871
C         -4.88462        -7.16221         0.88026
C         -3.60690        -7.87502         1.16759
C         -2.36682        -7.00179         1.41821
C         -0.99278        -7.75193         1.35514
C          0.24462        -6.96486         0.91697
C          1.55967        -7.59945         0.80419
C          2.62581        -7.16520         0.00480
C          3.75685        -7.98297        -0.21985
C          4.99886        -7.43060        -0.91397
C          6.21756        -7.90103        -0.07412
C          7.54421        -7.28830        -0.53083
C         -5.80971        -9.23510        -0.13059
C         -4.63653        -9.89327         0.10659
C         -3.45976        -9.26831         0.69518
C         -2.27371        -9.91403         0.83336
C         -0.99074        -9.32031         1.39302
C          0.14707       -10.00522         0.62138
C          1.47067        -9.71789         0.80233
C          2.66210       -10.22653         0.18029
C          3.77993        -9.41591        -0.04958
C          5.07324       -10.09045        -0.21342
C          6.23481        -9.41333        -0.14637
O          4.52435        -3.47336        -2.77764
O         -4.30082         2.96411        -1.24861
O         -0.16180        -7.04946         2.31637
O         -8.57746        -3.36313         1.83967
O         -1.94348         3.21919         1.79691
O         -0.84052        -3.97587         1.31073
O         -2.23587        -0.17323        -2.11265
O          6.64903         4.66251        -1.40662
O         -0.02513        -3.94487        -2.09423
O          2.29544         5.51826         2.01081
O          5.88280        -5.65716        -2.35184
O         -4.03959        -2.88520         2.08070
O         -5.57720         1.36967         1.85082
O         -4.60757        -7.72555         2.22883
O         -6.36981        -4.43346         2.29592
O          2.33663        -4.82159         0.70341
O          3.14230         7.32360        -0.96786
O         -8.19681         0.91335        -1.84663
O          4.33320        -0.87326        -2.59717
O         -8.05037         2.34698         1.43708
O          1.77075        -8.64289         1.69796
O         -0.12929         0.39672         0.82158
O          2.41214         2.56456        -1.87827
O         -7.11976        -0.90163         2.04462
O          1.45949         5.76562        -1.60091
O         -2.15733         7.66286         1.83151
O          5.08081         2.33589        -2.02032
O          5.48742        -0.42641         0.64200
O         -3.99342         7.87725        -1.48563
O         -2.55067         5.43704        -1.20482
O          1.64968        -1.32016         0.03106
O         -5.54346        -1.81106        -1.05599
O          1.32510         8.09770         2.20394
H          1.18295         7.17600         2.53365
O          7.85010        -7.70828        -1.86142
H          7.02153        -7.63619        -2.39466
O          4.11665         9.63213        -1.57745
H          3.49040         9.02058        -2.03302
O         -6.41604         7.93734         1.20428
H         -5.76241         8.56240         1.61624
O         -8.40980         3.98436        -1.92321
H         -8.42638         1.81994        -2.14366
O         -1.08471         5.44788         2.19947
H         -1.62609         4.78115         2.68095
O          6.32551         8.04275        -1.32295
H          5.57593         8.62342        -1.62443
O          6.45566         1.78124         1.64529
H          5.90635         1.03487         1.98321
O          0.13659        10.72877         1.94608
H          0.36191         9.93890         2.48942
O          8.02531         2.43781        -1.53005
H          7.81981         3.22109        -2.09407
O         -0.17239        -6.49676        -1.30541
H         -0.26118        -5.81124        -2.01285
O          8.32762         7.83989         1.62011
H          8.62448         8.75259         1.43301
O          9.14672        -3.57203        -2.02072
H          8.64132        -4.26415        -2.50255
O         -0.40769        -1.60060        -2.91948
H         -1.17934        -0.99236        -3.14657
O          3.16239        -5.84880        -2.70793
H          3.58334        -5.31498        -3.42057
O         -2.32705         0.92987         1.97344
H         -1.40455         0.63680         2.15567
O          8.04973         3.48389         3.01032
H          8.13685         2.50237         3.18357
O         -0.86707        -9.69193         2.78216
H         -0.33504        -8.99316         3.22493
O          0.36699         0.97815        -2.64278
H          0.69552         1.84765        -2.96000
O          5.08725        -8.07684        -2.20924
H          4.41656        -7.64379        -2.78603
O         -4.97954         5.54220        -2.15905
H         -4.08115         5.75552        -2.50287
O         -2.45695        -6.47447         2.73933
H         -3.37514        -6.63760         3.06547
O         -4.17546         9.47339         1.81014
H         -3.45858         8.98042         2.28326
O          2.04762        -2.92824        -3.20779
H          1.12933        -2.57943        -3.35318
O         -8.14292        -1.45096        -1.48150
H         -7.14098        -1.40112        -1.51169
O          6.03103        -7.46697         1.29082
H          5.26514        -7.95024         1.66862
O         -2.69014        -6.39556        -0.87792
H         -2.80888        -5.67954        -1.53692
O          7.83015        -1.12582        -2.13514
H          8.47702        -1.83072        -2.39000
O          5.13408         7.40073         2.08276
H          4.36564         6.91747         2.45617
O         -6.06371         4.02883         1.79787
H         -6.26764         3.17954         2.27040
O          0.79648         2.63305         1.71882
H          0.07812         2.28627         2.29150
O          9.09246         1.19914         2.73783
H          9.10386         0.24217         2.95391
H         11.78658        -0.98185         0.63685
H         11.50181         1.37740         1.20326
H          9.70843         3.23775         0.19231
H          9.09857         5.86742         2.06712
H          8.36552         7.45886        -0.42426
H          7.07325         9.95236         1.10796
H          4.94695        11.13911         0.93545
H          2.47281        11.21808        -0.11872
H          0.02348        11.20002        -0.06661
H         -2.45410        11.25030         0.11626
H         -4.87365        11.17698        -0.63515
H         -6.90686         9.91737        -1.18465
H         -8.29286         7.70988        -1.12625
H         -9.58231         5.59256        -1.06528
H        -10.94074         3.33853        -0.38418
H        -12.13241         1.18518        -0.24283
H        -12.15369        -1.24760        -0.10440
H        -10.96692        -3.41694         0.03836
H         -9.34023        -5.63534        -0.48609
H         -8.01110        -7.65900        -0.54712
H         -6.64619        -9.78079        -0.59335
H         -4.55094       -10.95384        -0.17507
H         -2.21171       -10.96446         0.50627
H         -0.11958       -10.83485        -0.05045
H          2.74492       -11.30476        -0.02585
H          5.06941       -11.18998        -0.25939
H          7.20057        -9.93876        -0.16526
H          8.36786        -7.64366         0.13956
H          9.52324        -5.54067         0.10358
H         10.73877        -3.26843         0.21458
