         667
 CSIRO Nanostructure Databank - Neutral Graphene Oxide Data Set
C          5.97871        31.64882        -0.13056
C          5.98695        32.96034         0.19014
C          8.09865        27.30903        -0.76803
C          8.32312        28.65209        -0.56489
C          7.15185        29.50803        -0.44173
C          8.51784        31.53255         0.05082
C          7.19019        30.85397        -0.20880
C          8.46418        33.03416        -0.07072
C          7.25879        33.69248         0.54434
C          8.33098        35.88813        -0.08746
C          7.19181        35.15709         0.26087
C          8.28579        37.31536        -0.16032
C         10.58774        23.29960        -0.61844
C         10.69616        24.47027        -1.31409
C          9.39998        25.19948        -1.50327
C         11.16233        27.35942        -0.77932
C          9.17435        26.33486        -0.80441
C         10.97250        28.76830        -0.96460
C          9.62403        29.36942        -0.83851
C         10.86742        31.63997        -0.98780
C          9.61561        30.88097        -0.76689
C         10.72502        33.08997        -1.10357
C          9.55764        33.78155        -0.49175
C         10.69641        36.01772        -1.01345
C          9.55436        35.20175        -0.43608
C         10.84169        37.34827        -0.30483
C          9.48875        38.08843         0.03355
C         10.79701        40.22370         0.04577
C          9.56266        39.52641         0.05921
C         10.82576        41.58995         0.30474
C         13.29366        19.31073         0.75274
C         13.26346        20.64896         0.36801
C         11.98863        21.40166         0.46665
C         13.44501        23.19117        -1.35033
C         11.63054        22.28536        -0.50005
C         13.30973        24.50046        -1.67085
C         11.94748        25.15491        -1.94679
C         13.23004        27.42771        -1.99049
C         12.09883        26.63682        -1.49170
C         13.28254        28.87728        -1.73633
C         12.07759        29.54397        -1.37851
C         13.25428        31.73825        -1.64577
C         12.03749        30.99751        -1.38850
C         13.25759        33.14076        -1.53539
C         12.00240        33.88705        -1.38424
C         13.23981        35.97360        -0.92530
C         12.03234        35.30485        -1.02080
C         13.29087        37.44109        -0.80654
C         12.04488        38.16654        -0.56653
C         13.26390        40.30321        -0.43343
C         12.03865        39.52639        -0.30290
C         13.29913        41.62234        -0.07954
C         12.08330        42.39426         0.38993
C         13.19251        44.57715        -0.35563
C         11.93763        43.72885        -0.40781
C         13.15750        45.92778        -0.38195
C         15.71893        15.08493         1.50746
C         15.71622        16.46397         1.16454
C         14.51150        17.19705         1.09187
C         15.74801        19.25226         0.52865
C         14.50843        18.57123         0.77572
C         15.73546        20.63641         0.17035
C         14.49407        21.28813        -0.00368
C         15.80513        23.40511        -0.62304
C         14.48179        22.75090        -0.34203
C         15.79144        24.68351        -1.10802
C         14.64194        25.19133        -1.95321
C         15.80289        27.47754        -1.94289
C         14.58390        26.69629        -2.09243
C         15.74045        28.89803        -2.06797
C         14.49318        29.59465        -1.92172
C         15.72354        31.72765        -1.98777
C         14.50444        31.02769        -1.84915
C         15.71727        33.24262        -2.08373
C         14.46839        33.89290        -1.53262
C         15.74522        35.93045        -0.95567
C         14.46352        35.23714        -1.17526
C         15.76933        37.43392        -0.82803
C         14.47543        38.14164        -0.90476
C         15.78665        40.31925        -0.83227
C         14.45629        39.64034        -1.11582
C         15.80873        41.64255        -0.50458
C         14.56975        42.37425        -0.14100
C         15.69921        44.56484        -0.89350
C         14.50678        43.87358        -0.29584
C         15.69006        46.07478        -0.88696
C         14.38280        46.76380        -0.54275
C         15.70346        48.76603         0.16102
C         14.48449        48.09258         0.05458
C         15.74011        50.09398         0.67260
C         18.01308        10.86417         2.56083
C         18.09439        12.18045         2.02722
C         16.95874        12.99874         2.06393
C         18.14748        15.04808         1.33766
C         16.92153        14.36828         1.61524
C         18.18484        16.42019         1.05634
C         16.96138        17.14997         0.94836
C         18.22248        19.24806         0.53405
C         16.97642        18.54517         0.66430
C         18.23287        20.63846         0.22996
C         17.00224        21.34577         0.03386
C         18.27638        23.41854        -0.46341
C         17.03988        22.73003        -0.27544
C         18.29204        24.78534        -0.87484
C         16.99649        25.54622        -0.87169
C         18.25414        27.47736        -1.87254
C         17.03002        26.83811        -1.63506
C         18.20228        28.85621        -2.39782
C         16.95221        29.62618        -2.18794
C         18.21167        31.82434        -2.43553
C         16.94229        31.02800        -2.18835
C         18.23861        33.04479        -1.49792
C         16.99033        33.89082        -1.58351
C         18.26529        35.96509        -1.05135
C         17.00301        35.20247        -1.23274
C         18.24450        37.44635        -1.19186
C         17.04575        38.15660        -1.07906
C         18.26259        40.27846        -1.12134
C         17.03927        39.58548        -1.04254
C         18.30089        41.71147        -0.93846
C         17.10010        42.41330        -0.33304
C         18.26070        44.58518        -0.93019
C         16.98906        43.82125        -0.90359
C         18.21396        46.07004        -0.90658
C         16.95671        46.78831        -0.62212
C         18.21564        48.79113         0.14864
C         16.96587        48.10215        -0.17250
C         18.20012        50.10255         0.72474
C         16.94774        50.77655         0.93104
C         18.12448        52.79638         1.72458
C         16.94233        52.12365         1.38944
C         18.08178        54.24843         2.01574
C         20.66071         6.63062         3.12143
C         20.59922         8.01147         2.86487
C         19.32252         8.70713         3.04392
C         20.81641        10.78999         1.71127
C         18.97109         9.83779         2.32349
C         20.68779        12.17850         1.72115
C         19.33876        12.78880         1.34338
C         20.68300        14.94401         1.10155
C         19.40451        14.29509         1.67416
C         20.66425        16.45336         1.14252
C         19.44959        17.13848         0.96156
C         20.70123        19.24447         0.66321
C         19.45498        18.54736         0.73268
C         20.72305        20.65429         0.32720
C         19.48685        21.32830         0.08902
C         20.74682        23.37762        -0.44685
C         19.51203        22.70293        -0.28289
C         20.74695        24.82560        -0.71183
C         19.48481        25.48635        -1.09687
C         20.75022        27.51044        -1.86439
C         19.50282        26.82624        -1.60768
C         20.76273        28.86017        -2.23986
C         19.51739        29.59855        -2.51487
C         20.73047        31.67692        -2.12370
C         19.52172        31.05355        -2.32049
C         20.78253        33.07437        -1.56725
C         19.49582        33.82281        -1.72067
C         20.69212        36.00777        -1.96584
C         19.52866        35.24187        -1.38754
C         20.72385        37.45814        -1.55874
C         19.49680        38.13958        -1.36103
C         20.71218        40.28009        -1.49668
C         19.49852        39.57349        -1.33291
C         20.69122        41.77465        -1.71296
C         19.44761        42.43812        -1.15254
C         20.76140        44.61437        -1.03244
C         19.43647        43.88662        -0.99850
C         20.65892        45.91361        -0.20231
C         19.49791        46.79413        -0.60543
C         20.67105        48.71678         0.49094
C         19.44838        48.13388         0.00804
C         20.68403        50.09123         0.91078
C         19.41953        50.77015         1.06841
C         20.64242        52.79417         1.80975
C         19.35925        52.08614         1.60877
C         20.79559        53.79084         2.84867
C         18.92724        54.85113         2.89878
C         20.54161        56.67904         3.51651
C         19.31647        56.24677         3.09027
C         20.68388        58.18253         3.70221
C         23.15319         3.82158         3.23071
C         21.92976         4.49698         3.23481
C         23.11448         6.61930         2.95381
C         21.88317         5.90542         3.08840
C         23.09257         8.03539         2.82480
C         21.83714         8.71184         2.63750
C         23.07184        10.88326         2.53822
C         21.90215        10.11642         2.30807
C         23.07368        12.25705         2.29137
C         21.85613        12.91294         1.99720
C         23.06390        15.18225         2.18501
C         21.83083        14.38648         1.92122
C         23.14704        16.49480         1.51187
C         21.89600        17.14710         1.13858
C         23.21060        19.21588         0.80010
C         21.90124        18.53535         0.86990
C         23.23160        20.66430         0.41969
C         21.94695        21.34648         0.16348
C         23.23503        23.33442        -0.64181
C         21.97386        22.69800        -0.26809
C         23.25073        24.62580        -1.14382
C         22.06531        25.49484        -1.04567
C         23.21080        27.43935        -2.06881
C         22.03916        26.83281        -1.69744
C         23.19965        28.77054        -2.80099
C         21.99303        29.59363        -2.40643
C         23.19560        31.81777        -2.72205
C         21.98659        30.97251        -2.32574
C         23.27091        33.17435        -2.03492
C         22.02204        33.88231        -1.86788
C         23.20302        36.01330        -1.49646
C         21.98181        35.25343        -1.75127
C         23.20745        37.47423        -1.65924
C         21.95049        38.16581        -1.61899
C         23.20493        40.30393        -1.62548
C         21.94513        39.59817        -1.59145
C         23.18724        41.72721        -1.27074
C         21.96833        42.40248        -1.22413
C         23.18391        44.42035        -0.33621
C         21.87992        43.70833        -0.49442
C         23.23367        45.84825        -0.18498
C         21.95095        46.70501        -0.20692
C         23.06473        48.56984         1.19834
C         21.89310        48.01116         0.42875
C         23.17272        50.06796         1.05742
C         21.95593        50.75542         1.05994
C         23.20084        52.81730         1.91326
C         21.97922        52.19349         1.37687
C         23.15520        54.05950         2.50851
C         21.90533        54.57738         3.00265
C         23.07668        56.57988         3.94604
C         21.76699        55.81096         3.87655
C         23.04443        57.87079         4.56492
C         21.83572        58.61705         4.57898
C         22.96134        60.37396         5.83847
C         21.80475        59.85372         5.21459
C         24.35720         4.51396         3.11476
C         25.56930         6.67773         2.91852
C         24.36234         5.92923         2.99464
C         25.55434         8.07417         2.90150
C         24.32082         8.75702         2.87711
C         25.55137        10.98862         3.03158
C         24.25221        10.23291         3.19160
C         25.59636        12.30267         2.67113
C         24.38458        12.99758         2.06075
C         25.60879        15.17596         2.28322
C         24.32916        14.47104         2.64942
C         25.61083        16.45981         1.73358
C         24.37539        17.08351         1.30602
C         25.70018        19.08890         0.48574
C         24.39996        18.32967         0.45787
C         25.71103        20.37746        -0.31020
C         24.45856        21.24155        -0.16526
C         25.74467        23.07250        -1.22526
C         24.45442        22.52215        -0.63451
C         25.75680        24.57912        -1.34326
C         24.48369        25.21448        -1.72002
C         25.77107        27.40379        -2.12108
C         24.48034        26.67212        -2.12485
C         25.78930        28.83339        -2.34483
C         24.53125        29.53784        -2.72260
C         25.76706        31.76476        -2.29319
C         24.52593        31.05112        -2.69280
C         25.74710        33.15174        -2.09332
C         24.47921        33.83917        -1.93546
C         25.74076        36.05237        -1.79969
C         24.52294        35.25944        -1.53526
C         25.68981        37.43655        -1.84428
C         24.43071        38.15984        -1.73599
C         25.68418        40.34107        -1.75870
C         24.40899        39.59973        -1.72672
C         25.66816        41.81372        -1.27808
C         24.39431        42.36655        -0.85601
C         25.68670        44.38936        -0.06209
C         24.38736        43.60169         0.01020
C         25.71662        45.74370         0.20079
C         24.42884        46.42231         0.47777
C         25.63988        48.60015         0.77003
C         24.37748        47.80166         1.02100
C         25.60093        49.96138         1.42140
C         24.43835        50.70160         1.34682
C         25.67657        52.69187         2.35631
C         24.51744        52.21063         1.50792
C         25.63886        53.97791         2.90047
C         24.42727        54.85141         2.67810
C         25.52062        56.55654         4.18366
C         24.30044        55.99145         3.65884
C         25.46400        57.75357         4.92830
C         24.24478        58.44691         5.08925
C         24.16603        59.70424         5.75669
C         26.85644         8.84899         2.83161
C         28.03975        11.02872         3.32219
C         26.77291        10.23903         3.50940
C         28.06193        12.35527         3.02165
C         26.83088        13.07967         2.74018
C         28.08499        15.28321         2.69982
C         26.82870        14.46021         2.53624
C         28.06535        16.56830         1.89153
C         26.86906        17.16634         1.52875
C         28.11281        19.27066         0.93825
C         26.85931        18.51365         0.95228
C         28.11156        20.59725         0.52807
C         26.94473        21.21342        -0.07003
C         28.10737        23.41641        -0.18046
C         26.94416        22.51225        -0.49241
C         28.17734        24.67450        -0.98976
C         26.93258        25.31228        -1.35800
C         28.23157        27.34564        -1.99012
C         26.92920        26.69966        -1.80598
C         28.25406        28.85779        -2.21918
C         26.97116        29.57314        -2.26371
C         28.18989        31.73063        -1.94394
C         26.99320        31.03060        -2.18996
C         28.20721        33.16405        -1.88630
C         26.97084        33.88842        -1.93988
C         28.21417        36.02170        -1.84693
C         26.98211        35.31076        -1.89783
C         28.22258        37.44823        -1.87613
C         26.95206        38.19922        -2.20706
C         28.14263        40.28142        -1.40631
C         26.96850        39.62169        -1.68148
C         28.14323        41.64660        -0.89127
C         26.93386        42.37203        -0.76400
C         28.15538        44.32520         0.11536
C         26.92851        43.67781        -0.22845
C         28.17767        45.70419         0.46990
C         26.94358        46.45642         0.48974
C         28.15541        48.50532         1.18406
C         26.89957        47.78197         0.92562
C         28.10159        49.73421         2.02966
C         26.80413        50.49869         2.08113
C         28.05330        52.45901         3.00539
C         26.84120        51.90871         2.48293
C         28.00933        53.77505         3.51950
C         26.80951        54.52942         3.51335
C         26.74082        55.83613         4.07305
C         29.39537        13.07955         3.05547
C         30.50175        15.10314         2.13491
C         29.35900        14.49074         2.52581
C         30.54488        16.51867         1.80335
C         29.32564        17.23358         1.66246
C         30.60648        19.26247         1.19484
C         29.35322        18.60196         1.28558
C         30.64786        20.71600         0.94985
C         29.34627        21.39764         0.61222
C         30.62088        23.25006        -0.44459
C         29.40716        22.67795        -0.10002
C         30.64506        24.60838        -0.94425
C         29.41865        25.30078        -1.12557
C         30.71985        27.42534        -1.58623
C         29.40880        26.79809        -1.21753
C         30.71509        28.84673        -1.76803
C         29.49169        29.55049        -1.87566
C         30.71428        31.70431        -1.96417
C         29.44791        31.00228        -1.52638
C         30.71030        33.18949        -1.93796
C         29.42396        33.89066        -1.76155
C         30.69090        36.02875        -1.72498
C         29.45122        35.30363        -1.75192
C         30.66218        37.41692        -1.77840
C         29.42860        38.13320        -1.81198
C         30.64854        40.14081        -0.97017
C         29.47054        39.64736        -1.79912
C         30.52702        41.38311        -0.20940
C         29.33254        42.22648        -0.36343
C         30.58458        44.17772         0.57861
C         29.35993        43.55584         0.11767
C         30.56586        45.54473         0.99762
C         29.40641        46.30744         0.86748
C         30.64926        48.34484         1.80340
C         29.45664        47.75797         1.13595
C         30.57974        49.71080         2.24590
C         29.37214        50.42941         2.36347
C         29.28336        51.72077         2.91394
C         31.77195        17.18315         1.63465
C         33.13743        19.29837         1.41189
C         31.81319        18.55967         1.37151
C         33.14807        20.63539         0.69458
C         31.89543        21.32452         0.43579
C         33.11917        23.06914        -0.88200
C         31.86468        22.52706        -0.23632
C         33.10029        24.58056        -0.99493
C         31.91179        25.27081        -1.15389
C         33.15245        27.39739        -1.60999
C         31.91301        26.70930        -1.46994
C         33.16674        28.79549        -1.69271
C         31.96874        29.53931        -1.72470
C         33.19079        31.68110        -1.88534
C         32.01208        30.98816        -1.80923
C         33.21424        33.15973        -2.22779
C         32.01530        33.81777        -1.47989
C         33.20797        35.99717        -2.25577
C         32.03766        35.37777        -1.42253
C         33.25184        37.51125        -1.92660
C         31.93319        38.19476        -1.73695
C         33.08442        40.06286        -0.49965
C         31.85787        39.48125        -1.00410
C         33.10317        41.38515        -0.06117
C         31.84746        42.06616         0.24506
C         33.06243        44.24874         0.60618
C         31.82504        43.50848         0.49136
C         33.05161        45.52334         1.10179
C         31.78626        46.08156         1.71075
C         31.78052        47.57308         1.93047
C         34.33661        21.26281         0.43306
C         35.58292        23.17442        -0.48059
C         34.39918        22.53897        -0.25432
C         35.62398        24.40098        -1.36525
C         34.42179        25.31189        -0.98970
C         35.71330        27.32467        -1.78056
C         34.38893        26.56169        -1.86392
C         35.71671        28.81441        -1.70566
C         34.43259        29.55363        -1.38485
C         35.67192        31.74210        -1.44388
C         34.49970        30.95303        -2.00074
C         35.69532        33.11258        -1.51095
C         34.49520        33.87746        -1.85450
C         35.76521        35.97363        -1.71660
C         34.49369        35.24148        -1.90388
C         35.73892        37.45553        -1.40507
C         34.43303        38.13376        -1.26593
C         35.50513        39.89947         0.17387
C         34.33745        39.32812        -0.60522
C         35.52319        41.41136         0.12677
C         34.35944        42.10852         0.08285
C         34.35046        43.62831         0.08911
C         36.90849        25.19261        -1.26921
C         38.13177        27.31986        -1.13158
C         36.96296        26.58257        -1.41207
C         38.05432        28.75438        -0.64778
C         37.01982        29.58235        -1.45131
C         38.14821        31.70793        -0.91788
C         36.82928        30.98940        -0.82249
C         38.16408        33.08775        -1.01558
C         36.93836        33.83591        -1.24202
C         38.20029        35.94564        -1.06407
C         36.97476        35.21533        -1.33120
C         38.17136        37.31890        -0.83443
C         36.93734        38.05838        -0.77198
C         36.83420        39.27647        -0.15815
C         39.34466        29.54820        -0.64501
C         40.60375        31.67523        -0.68129
C         39.35896        30.92852        -0.74212
C         40.62793        33.03422        -0.76268
C         39.41707        33.81005        -0.92388
C         39.41853        35.19398        -0.93140
O         15.82183        36.57457         0.37453
O          9.27041        30.22271        -2.01825
O         24.73646        30.32116        -3.95087
O         28.46783        27.86463        -3.30795
O         29.93838        21.49620         1.97959
O         14.77081        43.28362         1.01192
O         32.67191        38.30815        -3.01677
O         21.25401        53.12780         0.50871
O         30.66911        32.45057        -3.22560
O         10.39260        37.39675         1.02293
O         23.43532        20.21676         1.83152
O         19.76491        10.05537         1.15997
O         22.80950        46.64159        -1.37612
O         11.01890        33.59813        -2.45802
O         10.24457        26.71751         0.04748
O         16.18511        43.94678        -2.12746
O         29.01745        48.60148        -0.00429
O         19.17591        35.51337         0.03882
O         24.39582        46.67242         1.95159
O         27.23040        49.57330         3.18524
O         24.40305        25.60209        -3.14796
O         13.80199        27.04958        -3.29510
O         30.99467        41.30419         1.17311
O         19.70045        53.97083         3.70669
O         19.03837        46.70519        -1.98064
O         12.44305        22.27898        -1.65144
O         21.50741        25.56956         0.31810
O         18.80322        29.10264        -3.71878
O         25.71583        41.44939        -2.70455
O         35.78738        28.15272        -3.00593
O         14.88731        46.68496        -1.94294
O         21.99766        15.10006         3.20500
O         35.99947        36.97928        -2.76645
O         23.88504        35.56853        -0.25582
O         24.54310        13.09391         0.69204
O         18.24159        32.48801        -0.14600
H         18.47978        33.21697         0.46860
O         15.02256        24.71525        -3.29215
H         14.52982        25.26193        -3.94484
O         34.65156        25.79359         0.36433
H         34.80202        25.01344         0.94073
O         20.37264        45.61002         1.18616
H         20.73161        44.71025         1.39944
O         24.66741        55.48378         1.37021
H         24.79034        54.74569         0.72397
O         28.09146        15.71272         4.11031
H         27.24047        16.17112         4.27993
O         18.14819        32.32839        -3.80218
H         18.27837        31.56343        -4.40479
O         26.64833         9.96389         4.94653
H         26.81385        10.80601         5.42180
O         25.82303        22.59487        -2.60210
H         25.80384        21.60374        -2.56514
O         34.20075        18.46866         0.93437
H         34.07505        18.32946        -0.02644
O         37.62347        29.86158        -2.73076
H         37.20443        29.26587        -3.39474
O         10.37767        36.31045        -2.40635
H         10.39197        35.44010        -2.87534
O         24.16668        17.90506        -0.93731
H         24.58391        17.02553        -1.06321
O         32.92073        35.83783        -3.64314
H         32.79014        36.73928        -4.02251
O         22.99024        28.42799        -4.19859
H         23.70220        27.80977        -4.46983
O         22.67502        48.39857         2.60521
H         22.97878        47.49965         2.87516
O         21.53832        55.37498         5.24934
H         20.74648        54.78876         5.22553
O         19.47911        14.33222         3.12399
H         19.79788        15.21797         3.40062
O         30.40228        12.30456         2.39412
H         30.20853        12.30476         1.43452
O         22.94150        32.16203        -4.11412
H         23.30877        31.42102        -4.65381
O         35.24203        39.53743         1.58191
H         35.96013        39.92687         2.12390
O         34.24159        26.13947        -3.25025
H         34.48512        26.92230        -3.79936
O         23.95970        10.25631         4.63753
H         24.78758         9.94971         5.08634
O         27.18761         9.01244         1.45133
H         27.89428         9.68801         1.38252
O         25.74722        19.96720        -1.72502
H         25.08988        19.22864        -1.81785
O         17.37020        42.57544         1.08459
H         17.38998        41.68780         1.49813
O         36.56894        30.95565         0.62005
H         35.62828        30.66571         0.74195
O         20.65096        41.97863        -3.16708
H         19.76318        41.70944        -3.48399
O         19.14513        12.59856        -0.08159
H         19.19267        11.62898        -0.24442
O         29.68110        40.05715        -3.18803
H         29.67787        41.03698        -3.22203
O         25.56074        48.88116        -0.67620
H         26.43284        49.22270        -0.96975
O         14.24051        39.83852        -2.55587
H         13.40828        39.38017        -2.80055
O         15.68321        33.54886        -3.51912
H         16.52351        33.18702        -3.90438
O         33.10753        22.57242        -2.25943
H         33.95517        22.89110        -2.67144
O         24.29943        14.35615         4.07932
H         23.35017        14.41935         4.34607
O         35.47936        44.13849         0.79969
H         35.37101        43.91781         1.74714
O         29.48499        31.07431        -0.05344
H         28.86048        30.40707         0.30239
O         16.83671        26.00812         0.53676
H         16.94207        25.22112         1.11396
O         11.63428        43.44866        -1.77698
H         12.45554        43.19642        -2.24690
O         20.93247        32.85184        -0.10396
H         20.88297        33.73149         0.33228
O         24.25943        43.13427         1.43322
H         24.51837        43.88722         2.00984
O         34.73139        30.78371        -3.42564
H         34.51291        31.64318        -3.85844
O         32.13572        33.34548        -0.11090
H         32.99401        33.66583         0.24221
O          7.40133        33.54452         2.03530
H          8.04276        34.22910         2.32613
O         34.35276        29.70876         0.06795
H         34.22378        28.82062         0.46570
O         29.13328        27.24862         0.16579
H         29.63642        26.67129         0.77931
O         31.72438        45.51091         3.07856
H         31.67455        44.53537         2.97985
O         37.62807        28.59733         0.73983
H         37.43734        29.51116         1.08152
O         26.94247        38.32019        -3.66592
H         27.74718        38.82532        -3.92113
O         24.80720        52.75203         0.16434
H         24.04126        52.53703        -0.41155
O         20.88258        14.61361        -0.28773
H         20.32497        13.83169        -0.52501
O         32.35360        35.77683        -0.06323
H         31.67109        35.39356         0.52974
O         14.01509        23.42150         0.89925
H         14.50493        23.02520         1.65115
O         12.25255        42.80693         1.77186
H         12.48552        42.01673         2.30169
O         21.51513        43.25599         0.87667
H         22.36433        42.96782         1.30667
O         11.67471        25.22510        -3.35927
H         12.38087        25.77966        -3.76689
O         21.09415        44.91979        -2.38992
H         20.42331        45.55843        -2.72880
O         35.47298        23.90436        -2.73043
H         35.19618        24.67627        -3.29099
O         33.13686        33.23356        -3.66476
H         32.23336        32.93268        -3.93463
O         20.43444        36.01112        -3.40902
H         21.20081        36.42448        -3.85954
O          8.87405        31.26562         1.44782
H          8.29453        31.85491         1.99513
O         20.87592        58.79150         2.40474
H         21.74707        58.50505         2.05938
O         27.85581        23.90260         1.20600
H         28.13207        23.18744         1.82165
H          5.02557        31.14387        -0.35429
H          5.04207        33.52217         0.23902
H          7.05626        26.95537        -0.82179
H          6.16987        29.01615        -0.53634
H          6.26872        35.69458         0.52514
H          7.31783        37.83115        -0.23266
H          9.60331        23.06322        -0.17984
H          8.64637        24.77268        -2.18189
H          8.62749        40.10183         0.01282
H          9.88943        42.09629         0.58306
H         12.35966        18.80306         1.03423
H         11.37055        21.25346         1.36407
H         11.07210        44.29575         0.01566
H         12.18675        46.44912        -0.37724
H         14.76135        14.58333         1.71210
H         13.55614        16.68756         1.28674
H         13.57531        48.56083         0.46085
H         14.78687        50.60302         0.87997
H         17.15784        10.63900         3.21818
H         16.01524        12.56463         2.43211
H         15.97893        52.64779         1.47163
H         17.38736        54.85807         1.41825
H         19.72793         6.08162         3.31810
H         18.65881         8.34003         3.84128
H         18.56286        57.01596         2.84876
H         19.72438        58.59929         4.10146
H         23.16588         2.72723         3.33239
H         20.99190         3.93447         3.34853
H         22.90561        61.34508         6.34988
H         20.87742        60.44468         5.21292
H         25.31197         3.96905         3.12566
H         26.53142         6.14330         2.91954
H         26.38472        58.15968         5.37333
H         25.07811        60.14095         6.18822
H         27.66947         8.25745         3.34767
H         28.98993        10.52246         3.55826
H         28.92357        54.22576         3.93284
H         27.64971        56.26965         4.51759
H         29.70750        13.14154         4.13614
H         31.44108        14.52956         2.10109
H         31.50555        50.18071         2.61241
H         30.20705        52.21803         3.24655
H         32.71543        16.63254         1.76079
H         33.36370        19.49737         2.49850
H         33.99617        46.07938         1.19899
H         32.67685        48.00721         2.40082
H         35.28071        20.77984         0.72793
H         36.52582        22.73882        -0.11268
H         36.47836        41.94538         0.24881
H         34.47495        43.96322        -0.97987
H         37.82888        24.65741        -0.98672
H         39.04896        26.75442        -0.89698
H         39.09947        37.83004        -0.53670
H         37.72955        39.72703         0.30038
H         40.29508        29.01380        -0.48550
H         41.54205        31.11379        -0.55811
H         41.58547        33.57301        -0.70252
H         40.36384        35.74145        -0.79800
