         276
 CSIRO Nanostructure Databank - Neutral Graphene Oxide Data Set
C        -11.05555         0.85506         0.20702
C        -10.06963         1.49008        -0.74337
C         -8.71637         0.78475        -0.68649
C         -7.50519         1.48285        -1.22062
C         -6.33828         0.61437        -1.68686
C         -5.08332         1.34045        -2.18774
C         -3.77468         0.52752        -1.92098
C         -2.51029         1.29240        -2.17209
C         -1.17005         0.60155        -2.13407
C          0.10568         1.41544        -2.07317
C          1.42060         0.63867        -2.14306
C          2.69302         1.54098        -1.97761
C          3.96692         0.79237        -1.76081
C          5.22695         1.60527        -1.36456
C          6.44774         0.73939        -1.09141
C          7.52670         1.31743        -0.24704
C          8.70569         0.49146         0.04308
C          9.90912         1.14173         0.71662
C         11.19818         0.42204         0.55616
C         -9.83472         2.93307        -0.41366
C         -8.71562         3.62908        -0.88003
C         -7.71093         2.90623        -1.80690
C         -6.33106         3.66836        -2.04459
C         -5.11425         2.77039        -1.53313
C         -3.78763         3.52213        -1.60148
C         -2.51000         2.73930        -1.76725
C         -1.28289         3.26744        -1.06967
C          0.05701         2.81332        -1.57456
C          1.29450         3.40521        -0.97724
C          2.65263         3.05446        -1.61066
C          3.70149         3.43284        -0.51938
C          4.91634         2.59091        -0.24846
C          6.04138         3.07631         0.63064
C          7.40166         2.53560         0.41201
C          8.58955         3.22711         0.89191
C          9.80392         2.58906         0.91940
C         -8.61241         4.97146        -0.52864
C         -7.62201         5.84815        -1.20499
C         -6.29699         5.10125        -1.42128
C         -5.05196         5.66852        -0.82827
C         -3.76455         4.88673        -0.98852
C         -2.67369         5.17725        -0.00024
C         -1.37876         4.43769        -0.14511
C         -0.15393         5.16883         0.25488
C          1.16910         4.62942        -0.13530
C          2.33685         5.58960        -0.12939
C          3.65656         4.82634         0.02486
C          4.75706         5.42809         0.54846
C          6.18108         5.01624         0.20414
C          7.25448         5.43432         1.17832
C          8.60318         4.74703         1.08174
C         -7.43007         7.21661        -0.58469
C         -6.29122         7.67217        -0.00705
C         -5.15635         6.70865         0.30626
C         -3.77950         7.44933         0.47665
C         -2.74322         6.37803         0.88530
C         -1.50512         6.66678         1.71342
C         -0.20485         6.16589         1.19177
C          1.03438         6.82356         1.63011
C          2.17951         6.68604         0.89262
C          3.40359         7.50853         1.06136
C          4.60882         6.66246         1.38378
C          5.80217         7.27483         2.02348
C          7.09952         6.55362         1.92273
C         -6.14656         9.05395         0.43413
C         -5.04600         9.52044         1.05816
C         -3.89650         8.61827         1.48832
C         -2.64260         9.45897         1.76808
C         -1.38129         9.42633         1.25780
C         -0.23897        10.11758         1.87804
C          1.03512         9.87678         1.54990
C          2.28960         9.93350         1.13899
C          3.45769         8.98415         1.28478
C          4.67989         9.50278         1.97148
C          5.74153         8.73706         2.29481
C        -10.90027        -0.38011         0.72239
C         -9.77079        -1.24375         0.40512
C         -8.73139        -0.73401        -0.58029
C         -7.32286        -1.25946        -0.20270
C         -6.28687        -0.83196        -1.27455
C         -4.98445        -1.63340        -1.34666
C         -3.72247        -0.78185        -1.53889
C         -2.43034        -1.64243        -1.67665
C         -1.12376        -0.82070        -1.70849
C          0.10402        -1.24114        -0.94062
C          1.41575        -0.52410        -1.15390
C          2.71441        -1.26044        -1.04380
C          3.88656        -0.66349        -1.40902
C          5.13651        -1.46856        -1.68625
C          6.44243        -0.74039        -1.37954
C          7.57185        -1.51628        -0.74942
C          8.91436        -0.81162        -0.71786
C         10.02344        -1.65134        -0.11558
C         11.23220        -0.89221         0.22759
C         -9.71218        -2.52484         0.85636
C         -8.57219        -3.43517         0.57457
C         -7.33560        -2.75641         0.04573
C         -5.96605        -3.25431         0.31334
C         -4.87050        -2.67764        -0.25699
C         -3.71643        -3.55633        -0.67373
C         -2.37288        -2.85405        -0.74382
C         -1.18812        -3.40643        -0.35115
C          0.08959        -2.62997        -0.37674
C          1.39610        -3.34833        -0.21740
C          2.76036        -2.66071        -0.42656
C          3.85046        -3.53197        -1.03334
C          5.09712        -2.90416        -1.22945
C          6.27279        -3.67294        -1.10405
C          7.49076        -2.99094        -0.60408
C          8.69194        -3.82640        -0.17437
C          9.96507        -3.00618        -0.06148
C         -8.62243        -4.76499         1.26962
C         -7.72435        -5.74213         1.27636
C         -5.71451        -4.17342         1.44546
C         -4.56070        -5.10652         1.28732
C         -3.75142        -4.98043        -0.03335
C         -2.37818        -5.56037         0.28392
C         -1.11556        -4.76836         0.28966
C          0.22391        -5.50942         0.57243
C          1.30675        -4.85075        -0.28423
C          2.51897        -5.60309        -0.65743
C          3.79772        -4.93353        -0.97893
C          4.95975        -5.71923        -1.17998
C          6.22330        -5.08541        -1.12652
C          7.44878        -5.85767        -0.92884
C          8.76563        -5.10032        -1.03010
C         -6.98457        -6.83418         1.38684
C         -5.90548        -7.06301         2.47081
C         -4.55640        -6.47592         1.91111
C         -3.43742        -7.46840         1.64035
C         -2.27124        -7.05913         0.19232
C         -1.00631        -7.76750         0.61624
C          0.19870        -7.10108         0.58152
C          1.67402        -7.64416         0.79756
C          2.59932        -6.99001        -0.20629
C          3.62577        -7.76430        -0.59514
C          4.88023        -7.19645        -1.10662
C          6.13054        -7.94904        -0.66227
C          7.39283        -7.18018        -0.60632
C         -5.75250        -8.53384         2.81559
C         -4.79631        -9.35269         2.36029
C         -3.82249        -8.90194         1.28227
C         -2.54658        -9.70900         1.15802
C         -1.30663        -9.22169         0.84948
C         -0.12086       -10.09492         0.91925
C          0.89422        -9.72362         0.05880
C          2.14355        -9.19045         0.64574
C          3.46019        -9.20104        -0.18289
C          4.72643        -9.66399         0.51473
C          5.92930        -9.13012         0.22321
O          3.71488         2.37504         0.52773
O         -7.78175         1.46347         0.21774
O          4.81898         6.46768         2.81630
O          0.11673         2.55240        -2.99630
O         -6.24426        -3.95789         2.53457
O         -8.16145        -3.53859        -0.86016
O          6.48766         4.96195        -1.02848
O         -2.70611        -7.56497        -0.95126
O         -1.90811        -4.92350         1.51661
O         -1.41783         3.05650         0.37433
O         -5.48638         6.06628        -2.17165
O         -5.51848         6.05463         1.48795
O         -6.77955        -0.44776        -2.58467
O         -3.53098         4.71739        -2.41623
O          5.60581        -8.03887        -2.04250
O          3.74222         8.40514        -0.06461
O          0.60657        -0.25804         0.02738
O          3.56908         1.21773        -3.10171
O          1.35837         3.30859         0.47415
O          0.73522        -2.75688         0.93562
O          1.40818        -5.36131        -1.63996
O         -3.26146         5.09229         1.34490
O          6.90427         0.18741        -2.38492
O         -1.56896         7.23745         2.79710
O         -5.02524        -2.56285        -2.48983
O          7.14835        -2.06984         0.52495
O         -4.17961        -3.74741        -2.08288
O         -2.46256         2.34912        -3.16981
O          8.92931         0.35906         1.47777
O         -3.98576        -5.34442         2.61521
O          5.15665        -1.57158        -3.20610
O         -0.92376        -0.44780        -3.11684
O          9.42496         5.08473         2.19804
H          9.03982         4.67733         3.00091
O         -8.14322         6.07198        -2.54978
H         -7.40193         6.46476        -3.06323
O          3.28634       -10.03295        -1.34769
H          4.01076        -9.81357        -1.97321
O         -6.18087         3.85567        -3.44892
H         -5.43739         4.49178        -3.57824
O          5.69748         3.13861         1.94667
H          4.71035         3.07597         2.00693
O          9.31354        -0.52921        -2.07439
H         10.27370        -0.33613        -2.08329
O          0.62473        -9.36136        -1.20193
H         -0.32707        -9.49829        -1.39034
O          3.26968        -2.42754         0.91971
H          2.50002        -2.15828         1.47489
O          2.37305         6.18615        -1.44899
H          3.00644         6.93905        -1.42031
O         -1.04698         8.62500         0.17753
H         -0.10287         8.77502        -0.04418
O         -4.52932        -5.79592        -0.91374
H         -3.94140        -6.47320        -1.34773
O         -8.36240         2.73708        -3.07323
H         -7.80834         3.19532        -3.75341
O          0.57308        -5.14790         1.93455
H         -0.27073        -5.08720         2.44156
O         -2.57947        -7.45696         2.72024
H         -2.62543        -6.55962         3.13070
O          8.98605        -4.70331        -2.38432
H          8.87247        -5.48259        -2.96570
O         -6.23413        -6.40487         3.67798
H         -6.25922        -5.42689         3.51384
O        -10.62630         1.43271        -2.07733
H         -9.95862         1.81513        -2.69919
O          2.09957        -7.28306         2.11493
H          1.69402        -6.40833         2.34741
O         -9.10715        -1.22550        -1.87557
H         -8.97620        -2.20530        -1.87575
O         -4.57556        -8.95549         0.06510
H         -3.96413        -8.67406        -0.66858
O         -2.52294        -2.25923        -2.97665
H         -2.24127        -1.59274        -3.64603
O         -5.29615         2.50247        -0.12666
H         -5.24760         3.33227         0.39831
O         -3.44545         7.92730        -0.83009
H         -2.64106         8.49124        -0.77528
O          2.86089         3.81548        -2.78617
H          3.65705         3.45073        -3.23575
O         -4.26387         8.04821         2.76028
H         -4.83987         7.25008         2.56904
O         -5.17193         1.47001        -3.60402
H         -5.56901         0.64054        -3.95186
O          1.00710         7.63418         2.70756
H          0.08265         7.64826         3.07806
O          8.42556        -4.29124         1.16988
H          8.07430        -3.52123         1.67239
O          1.51894         0.02429        -3.43704
H          1.32253         0.70947        -4.11176
O         -6.86067        -0.76196         1.06701
H         -6.96624         0.22263         1.09009
O          3.87406        -2.06741        -3.63201
H          3.35406        -1.24183        -3.82327
O          5.57247         2.45495        -2.47328
H          6.00924         1.88785        -3.14891
H         12.19414        -1.42794         0.22771
H         12.12915         0.96024         0.78807
H         10.71835         3.17362         1.10013
H          9.11338         5.17087         0.17193
H          7.94717         6.91944         2.52660
H          6.61515         9.20054         2.77906
H          4.69833        10.57531         2.21912
H          2.54431        10.78724         0.47383
H         -0.44735        10.70362         2.79069
H         -2.77497        10.10810         2.64719
H         -5.01146        10.57586         1.37000
H         -6.98206         9.73845         0.21363
H         -8.26168         7.92068        -0.75179
H         -9.34417         5.39937         0.17385
H        -10.59493         3.48832         0.15974
H        -11.95038         1.44316         0.46219
H        -11.66477        -0.78568         1.40365
H        -10.50786        -2.90052         1.51955
H         -9.56968        -4.95492         1.81036
H         -7.04062        -7.59977         0.59152
H         -6.47488        -8.90700         3.55778
H         -4.75077       -10.39963         2.69877
H         -2.63599       -10.79467         1.31846
H          0.18126       -10.38684         1.93965
H          2.29796        -9.60807         1.66088
H          4.66752       -10.52106         1.20367
H          6.83011        -9.52413         0.72121
H          8.31382        -7.71438        -0.32153
H          9.60923        -5.75648        -0.67286
H         10.84435        -3.55276         0.31821
