         410
 CSIRO Nanostructure Databank - Neutral Graphene Oxide Data Set
C         27.83180        27.39773        -0.74046
C         27.81813        28.79150        -0.75998
C         26.60624        29.55754        -0.76288
C         27.84293        31.70480        -1.16949
C         26.60284        30.91463        -0.83701
C         27.83798        33.14999        -0.69323
C         26.64095        33.86532        -0.63068
C         27.83331        35.94082        -0.19567
C         26.63576        35.23678        -0.36751
C         27.81060        37.42204        -0.08994
C         26.62513        38.13860         0.38691
C         27.93928        40.17582         0.83068
C         26.68708        39.45748         0.70418
C         27.94383        41.59463         1.19568
C         26.76009        42.31737         1.39052
C         27.96896        44.43038         1.50386
C         26.76946        43.70547         1.55973
C         27.98360        45.86235         1.59939
C         30.29089        27.34363        -0.60671
C         29.03137        26.68591        -0.58064
C         30.33508        28.72524        -0.80324
C         29.09894        29.51669        -0.46609
C         30.29427        31.67943        -0.67385
C         29.11692        30.98363        -0.80996
C         30.31479        33.11520        -0.51167
C         29.06616        33.83623        -0.47100
C         30.33021        35.94603        -0.03192
C         29.06798        35.24271        -0.22778
C         30.37195        37.32387         0.16255
C         29.15121        38.14723         0.08707
C         30.41369        40.09021         1.19601
C         29.13431        39.49562         0.66432
C         30.41833        41.59906         1.10214
C         29.19710        42.30129         1.21972
C         30.42781        44.45491         1.28294
C         29.20647        43.73233         1.33640
C         30.42109        45.90419         1.35602
C         29.15144        46.56502         1.51263
C         32.82639        24.51803        -0.10738
C         31.63456        25.15305        -0.23708
C         32.85626        27.36431        -0.30873
C         31.55038        26.61936        -0.25975
C         32.91934        28.69441        -1.03234
C         31.59543        29.45639        -1.02484
C         32.82970        31.62783        -0.43589
C         31.58581        30.95252        -0.84054
C         32.75696        32.98594        -0.10405
C         31.53366        33.76905        -0.20399
C         32.77638        35.82570         0.45051
C         31.55805        35.17665         0.04472
C         32.89605        37.26166         0.46881
C         31.67705        38.06694         0.07123
C         32.86795        40.14372         0.68576
C         31.67449        39.45628         0.66685
C         32.88223        41.59670         0.85796
C         31.64061        42.30308         1.02659
C         32.88010        44.43744         0.98332
C         31.64740        43.73542         1.11041
C         32.89801        45.90364         1.15611
C         31.62092        46.63095         1.26663
C         32.79571        48.78409         0.97132
C         31.69785        48.07033         1.34892
C         35.38125        23.09617         0.33768
C         35.33644        24.49356         0.04993
C         34.10090        25.21115        -0.08596
C         35.34887        27.33015        -0.35274
C         34.12789        26.60527        -0.28518
C         35.34535        28.78892        -0.40259
C         34.11765        29.49707        -0.56177
C         35.27229        31.57437         0.05744
C         34.06499        30.88854        -0.35180
C         35.11296        32.85067         0.60845
C         33.91134        33.61091         0.46991
C         35.74058        36.08603         0.57586
C         33.84674        34.96876         0.82526
C         35.39891        37.35720         0.20369
C         34.10897        37.98642         0.43034
C         35.32283        40.14406         0.26948
C         34.10689        39.43112         0.39499
C         35.35322        41.57715         0.60817
C         34.06790        42.31774         0.68723
C         35.26136        44.48270         0.24501
C         34.05940        43.74330         0.69612
C         35.32655        45.95031         0.25529
C         34.14500        46.68100         0.74363
C         35.16563        48.83764        -0.22808
C         33.96044        48.11255         0.35731
C         35.27718        50.29692        -0.15704
C         37.82008        23.10823         0.36751
C         36.57349        22.43829         0.53207
C         37.80601        24.48341         0.01224
C         36.56885        25.20028        -0.06626
C         37.82053        27.33139        -0.18464
C         36.57079        26.62261        -0.23087
C         37.82131        28.78239        -0.25556
C         36.56243        29.50284        -0.29040
C         37.78160        31.66135        -0.27883
C         36.56655        30.93487        -0.11692
C         37.87376        33.08453        -0.29068
C         36.98631        33.94378         0.35057
C         37.78960        35.97455        -0.81542
C         36.87662        35.35256         0.04416
C         37.56345        37.40679        -1.16123
C         36.37857        38.11891        -0.59084
C         37.75728        40.21207        -0.37257
C         36.50556        39.54630        -0.23928
C         37.85588        41.59672        -0.08157
C         36.65030        42.30214         0.42438
C         37.81035        44.53084         0.14288
C         36.55348        43.74918         0.06853
C         37.76558        45.96410        -0.17194
C         36.49420        46.61990        -0.13548
C         37.76638        48.83313        -0.43805
C         36.44851        48.07190        -0.43110
C         37.74767        50.28432        -0.17943
C         36.48315        50.94619        -0.11606
C         40.36432        20.79678         1.87652
C         39.16452        21.28785         1.42231
C         40.28580        23.07496         0.14070
C         39.08500        22.46749         0.61092
C         40.26993        24.44993        -0.28741
C         39.04578        25.17222        -0.18553
C         40.29082        27.30972         0.01277
C         39.02132        26.60591        -0.17554
C         40.28400        28.84282        -0.09795
C         39.01052        29.49185        -0.37026
C         40.30558        31.63852        -0.66639
C         38.98043        30.91614        -0.86154
C         40.33460        33.03829        -0.75704
C         39.03742        33.74219        -0.95189
C         40.34514        35.90832        -1.16105
C         39.02104        35.21313        -1.21424
C         40.51335        37.19743        -1.56502
C         38.68891        38.30353        -1.50842
C         40.24853        40.20945        -0.98011
C         38.92654        39.54749        -0.94902
C         40.26099        41.61563        -0.67522
C         39.05371        42.29423        -0.29923
C         40.29697        44.52578        -0.34568
C         39.10098        43.74673        -0.01318
C         40.26092        45.94406        -0.28273
C         39.00410        46.66646        -0.25553
C         40.24600        48.80736        -0.20565
C         39.02788        48.08638        -0.27077
C         40.22784        50.24578        -0.13845
C         38.98901        50.96942        -0.07205
C         40.22385        53.07565         0.06147
C         39.03437        52.39566         0.06335
C         42.87659        20.88665         1.78593
C         41.59311        21.32701         1.36899
C         42.70990        22.61010        -0.31975
C         41.51357        22.34085         0.37347
C         42.69268        24.61995        -0.98469
C         41.49113        25.21599        -0.56094
C         42.74845        27.33016        -0.45578
C         41.53602        26.61373        -0.31111
C         42.75085        28.78815        -0.46043
C         41.55666        29.50880        -0.41341
C         42.76514        31.64895        -0.57864
C         41.53138        30.93549        -0.55849
C         42.76689        33.07414        -0.60169
C         41.53847        33.76358        -0.64908
C         42.81117        35.95583        -0.76153
C         41.49987        35.26165        -0.43836
C         42.81136        37.36104        -0.97420
C         41.61411        38.05960        -1.20777
C         42.74608        40.23874        -0.97594
C         41.49889        39.50757        -1.12978
C         42.70695        41.65153        -0.79141
C         41.49627        42.35605        -0.65102
C         42.71050        44.55723        -0.42175
C         41.50363        43.81303        -0.51226
C         42.72488        45.95888        -0.29388
C         41.48870        46.67669        -0.29222
C         42.73587        48.81909        -0.18489
C         41.49080        48.10218        -0.21698
C         42.71657        50.25585        -0.16587
C         41.46548        50.95451        -0.11788
C         42.69029        53.08598        -0.07394
C         41.46294        52.37915        -0.04637
C         44.04583        21.42383         1.25024
C         45.18498        22.89203        -0.62952
C         43.98708        22.29908         0.14151
C         45.20260        24.43873        -0.65547
C         43.97971        25.20810        -0.83033
C         45.20316        27.35808        -0.86523
C         43.95904        26.62390        -0.67474
C         45.22903        28.80970        -0.66142
C         44.00054        29.50270        -0.56942
C         45.23352        31.63152        -0.57859
C         43.99613        30.92690        -0.55640
C         45.22857        33.07213        -0.56824
C         44.02078        33.79317        -0.59019
C         45.28412        35.93765        -0.66441
C         44.01830        35.23328        -0.68012
C         45.30234        37.37829        -0.73705
C         44.08674        38.08932        -1.25596
C         45.24459        40.23454        -0.73776
C         44.01622        39.56350        -0.93988
C         45.28929        41.70282        -0.79119
C         43.97407        42.41513        -0.80038
C         45.24542        44.52290         0.00222
C         43.95615        43.79760        -0.24844
C         45.19298        45.99440        -0.04713
C         43.98456        46.67686        -0.16251
C         45.21173        48.85833        -0.12504
C         43.97150        48.12517        -0.14659
C         45.19503        50.28150        -0.21565
C         43.93337        50.98881        -0.19301
C         43.88848        52.41008        -0.15970
C         47.55315        23.03518         0.22326
C         46.46250        22.31011        -0.09445
C         47.60266        24.47188         0.04378
C         46.41128        25.12089        -0.43306
C         47.71451        27.33189        -0.36643
C         46.51326        26.56468        -0.73094
C         47.72506        28.75483        -0.50840
C         46.47070        29.49213        -0.66400
C         47.71220        31.64986        -0.72985
C         46.44919        30.90825        -0.63738
C         47.69406        33.08467        -0.43686
C         46.48450        33.78002        -0.46173
C         47.75050        35.92399        -0.40236
C         46.46655        35.21534        -0.47307
C         47.74038        37.41262        -0.34876
C         46.45486        38.11063        -0.48680
C         47.72987        40.23845        -0.35606
C         46.45990        39.54241        -0.49314
C         47.75875        41.70009        -0.43203
C         46.53961        42.41937        -0.43301
C         47.75492        44.50624        -0.05419
C         46.53828        43.81076        -0.20474
C         47.74326        45.94553         0.30959
C         46.44371        46.72240         0.22699
C         47.67850        48.89145        -0.08571
C         46.46604        48.18305        -0.00461
C         47.63407        50.29344        -0.25876
C         46.42881        50.96987        -0.29580
C         49.98308        24.56357         0.75808
C         48.79384        25.20509         0.28585
C         50.08446        27.34948         0.30269
C         48.85690        26.63760         0.08168
C         50.13881        28.76155         0.05245
C         48.94528        29.44331        -0.32717
C         50.24476        31.63146        -0.19624
C         49.01772        30.89188        -0.57114
C         50.24351        33.03020        -0.08226
C         48.94518        33.73228        -0.01183
C         50.22714        35.96553         0.18877
C         48.94503        35.21786         0.13829
C         50.17556        37.34202         0.27698
C         48.85848        38.09843         0.39162
C         50.20073        40.20690        -0.16347
C         48.89620        39.54920        -0.04001
C         50.25333        41.69383        -0.41941
C         48.97659        42.41995        -0.36281
C         50.25517        44.55266        -0.19618
C         48.98799        43.82453        -0.19353
C         50.27049        45.96596        -0.13837
C         49.04009        46.69813         0.22511
C         50.22531        48.81088        -0.51863
C         49.00212        48.21111         0.04187
C         51.14753        25.25381         0.97811
C         52.48731        27.36920         0.89863
C         51.24921        26.65943         0.73725
C         52.55279        28.75956         0.56453
C         51.37929        29.46282         0.15980
C         52.67194        31.61668         0.00466
C         51.44400        30.90115        -0.01761
C         52.68242        33.03032        -0.03043
C         51.45922        33.76042         0.03684
C         52.69337        35.90268         0.28961
C         51.47191        35.21553         0.18195
C         52.71764        37.34312         0.62162
C         51.39399        38.08253         0.62450
C         52.70485        40.30725         0.41269
C         51.39900        39.57383         0.47157
C         52.71629        41.72004        -0.05111
C         51.52424        42.41977        -0.21775
C         52.71290        44.57924        -0.35853
C         51.49218        43.85810        -0.28499
C         52.72361        45.99192        -0.36282
C         51.47583        46.69343        -0.30463
C         51.39376        48.11767        -0.55715
C         54.85718        27.41778         1.48641
C         53.67220        26.72838         1.36250
C         54.95057        28.78626         1.10535
C         53.80426        29.44388         0.63154
C         55.26908        31.52979         0.21737
C         53.91793        30.82012         0.10523
C         55.30120        33.02990         0.06109
C         53.95540        33.78447        -0.11009
C         55.16094        35.92965         0.30981
C         53.94806        35.23020         0.17150
C         55.17897        37.39151         0.31014
C         53.96725        38.11830         0.42550
C         55.18579        40.24461         0.19809
C         53.96979        39.53268         0.36886
C         55.18466        41.70595         0.07555
C         53.97698        42.38964        -0.12929
C         55.30031        44.60228        -0.30770
C         53.96722        43.81975        -0.46699
C         55.17671        46.04914        -0.08267
C         53.98651        46.69158        -0.21410
C         56.18304        29.51716         1.30839
C         56.31842        30.82449         0.97134
C         56.41025        33.82761         0.58186
C         56.36760        35.19217         0.56495
C         56.38053        38.11612         0.14480
C         56.38364        39.50256         0.09526
C         56.39261        42.46647         0.27004
C         56.43205        43.83108         0.20383
O         31.58378        30.35555        -2.20813
O         54.80374        44.16840        -1.61053
O         36.17045        33.39564         1.36274
O         54.81808        33.44981        -1.24233
O         38.81618        34.23978        -2.32500
O         50.40667        40.72107        -1.52803
O         44.47796        43.91076         1.12110
O         36.23285        41.91891         1.76748
O         48.71937        34.40571         1.32203
O         34.07819        48.33475        -1.08744
O         44.72383        42.26844        -2.05232
O         37.07477        48.43543        -1.69475
O         40.33306        28.15279         1.20668
O         35.74066        43.97574        -1.10520
O         36.38410        37.72614        -2.01575
O         48.53309        31.28960        -1.90743
O         52.00654        37.63968         1.87847
O         45.96875        26.92643        -2.03790
O         39.57245        37.77343        -2.43421
O         47.01088        46.26241         1.52760
O         34.92236        35.48773         1.55678
O         54.85621        30.88304        -1.02322
O         42.60359        23.33164        -1.52880
O         49.23561        47.60052         1.35519
O         48.12367        36.72636        -1.58396
O         32.13170        27.29702         0.94808
O         51.90189        40.23221         1.67024
O         33.88787        46.38899         2.15454
O         28.47501        38.06392        -1.22490
O         38.58812        44.14665         1.31925
O         33.18399        28.32917        -2.41525
H         32.94164        29.11349        -2.96028
O         30.40851        39.78135         2.64798
H         31.19688        40.21329         3.04178
O         44.21493        38.02241        -2.73481
H         45.05628        38.46777        -2.97463
O         48.49445        38.05860         1.80403
H         49.27726        38.32445         2.33278
O         29.14341        29.56207         1.03604
H         29.18459        28.63060         1.34749
O         45.08794        22.43732        -2.00365
H         44.22285        22.75358        -2.35471
O         38.76852        30.85918        -2.31203
H         38.73883        31.78386        -2.64353
O         31.82984        38.31034        -1.38589
H         31.77854        37.44295        -1.84141
O         27.84984        31.78651        -2.64450
H         28.69665        32.20166        -2.91539
O         41.27171        35.45570         1.00634
H         42.04175        35.07647         1.48128
H         26.88524        26.84500        -0.83315
H         25.65183        29.01593        -0.66633
H         25.63794        31.43993        -0.80906
H         25.68164        33.36633        -0.81957
H         25.67613        35.77068        -0.35455
H         25.67185        37.60070         0.48772
H         25.75870        39.96202         1.00378
H         25.78918        41.80493         1.39547
H         25.82049        44.24208         1.70208
H         27.02818        46.39154         1.72774
H         28.99085        25.59269        -0.48633
H         29.12065        47.66124         1.57023
H         32.82740        23.41963        -0.08358
H         30.71542        24.56070        -0.35007
H         32.77170        49.88235         1.00868
H         30.81857        48.62544         1.70597
H         34.44635        22.53028         0.44544
H         34.34755        50.88239        -0.14688
H         36.55876        21.36801         0.78007
H         36.46343        52.04142        -0.03418
H         40.38984        19.96990         2.60038
H         38.23270        20.83885         1.79371
H         40.23534        54.17217         0.14073
H         38.09954        52.96510         0.14292
H         42.94444        20.13336         2.58374
H         42.67702        54.18418        -0.02542
H         45.01842        21.12065         1.66343
H         44.81949        52.99104        -0.17700
H         48.44484        22.50631         0.58537
H         46.50388        21.21354        -0.01770
H         48.56843        50.86743        -0.31686
H         46.44857        52.06320        -0.38858
H         49.98246        23.48272         0.94808
H         50.20236        49.84805        -0.88199
H         52.02568        24.69672         1.33018
H         52.29628        48.62878        -0.92168
H         55.75471        26.90749         1.86433
H         53.64794        25.66656         1.64070
H         56.07867        46.61314         0.19890
H         53.95739        47.78038        -0.06544
H         57.00596        28.99885         1.82255
H         57.23479        31.36405         1.24980
H         57.30554        33.32164         0.96938
H         57.25851        35.74717         0.89068
H         57.33127        37.57985         0.02278
H         57.33763        40.02385        -0.06158
H         57.29016        41.93504         0.61738
H         57.32060        44.37385         0.55917
