         234
 CSIRO Nanostructure Databank - Neutral Graphene Oxide Data Set
C          1.56544         1.85643        -2.11082
C          1.60224         3.20909        -2.47193
C          2.61746         1.31436        -1.39040
C          2.64256         4.03201        -2.01919
C          1.47328         7.32618        -1.83827
C          1.39648         8.47086        -1.03541
C          2.50914         6.40006        -1.64931
C          2.26159         8.61390         0.05787
C          1.08088        10.68693         0.72790
C          1.13530        12.02279         0.53542
C          2.28985         9.83766         1.00455
C          2.36607        12.76219         0.66600
C          1.21057        14.98880         0.05129
C          1.22730        16.32926        -0.04126
C          2.27863        14.23589         0.75401
C          2.28330        17.17865         0.64611
C          2.39703        18.54495         0.02594
C          3.71507         2.11875        -0.98237
C          3.68417         3.53760        -1.20137
C          4.88949         1.45076        -0.51703
C          4.79104         4.35309        -0.62354
C          3.49068         6.56173        -0.64976
C          3.20477         7.59208         0.26279
C          4.86250         5.87852        -0.85124
C          5.03052         8.56399         0.87230
C          3.61509        10.63080         0.90021
C          3.58536        12.08401         0.84937
C          4.85971         9.96891         0.83189
C          4.81999        12.85852         0.94899
C          3.56389        15.02021         1.02542
C          3.60900        16.44734         0.68113
C          4.82056        14.25997         1.01669
C          4.81771        17.08789         0.50435
C          3.58306        19.13821        -0.20851
C          4.85015        18.48015         0.07729
C          6.11046         2.11856        -0.36984
C          6.07059         3.59815        -0.32292
C          7.33948         1.45647        -0.19906
C          7.38175         4.30071        -0.44191
C          6.06758         6.50497        -0.11127
C          6.12338         7.82871         0.34231
C          7.36013         5.82118        -0.30604
C          7.41846         8.55333         0.34076
C          6.05764        10.77588         0.33298
C          6.09322        12.17221         0.89594
C          7.39344        10.03015         0.47112
C          7.27522        12.83305         1.11941
C          6.03932        15.01518         1.01592
C          6.07050        16.39141         0.75156
C          7.27843        14.28680         1.31890
C          7.33038        17.10642         0.64605
C          6.04690        19.12733        -0.09098
C          7.31688        18.49872         0.19525
C          8.58739         2.14899        -0.09566
C          8.62450         3.57455        -0.17484
C          9.81098         1.45441         0.01560
C          9.87142         4.27476        -0.19686
C          8.61809         6.35954         0.31234
C          8.63993         7.79334         0.70989
C          9.90767         5.69942         0.03614
C          9.92021         8.52573         0.72944
C          8.59821        10.63630         1.13442
C          8.56980        12.13586         1.33401
C          9.87587         9.89034         0.98825
C          9.82446        12.89243         1.13656
C          8.60736        15.03177         1.17865
C          8.54755        16.44445         0.79210
C          9.84972        14.25353         0.93511
C          9.83829        17.15143         0.71665
C          8.48619        19.18683        -0.04853
C          9.80066        18.64236         0.29286
C         11.05323         2.13324        -0.07045
C         11.08169         3.55405        -0.23838
C         12.27886         1.42724         0.01141
C         12.38159         4.22354        -0.63414
C         11.11895         6.40793         0.15270
C         11.13730         7.79868         0.49636
C         12.30953         5.83914        -0.61143
C         12.39299         8.51680         0.57363
C         11.12982        10.62159         1.14945
C         11.09304        12.13769         1.14429
C         12.38651         9.91117         0.83387
C         12.26974        12.76368         0.43804
C         11.09179        14.96818         0.62091
C         11.08882        16.39741         0.49454
C         12.29713        14.26977         0.47181
C         12.26798        17.08543         0.15333
C         11.03524        19.21052        -0.22941
C         12.24370        18.51523        -0.14098
C         13.53102         2.09810         0.07172
C         13.58655         3.52834        -0.06401
C         14.72372         1.35156         0.19220
C         14.82826         4.19953         0.08080
C         13.71738         6.53107        -0.33269
C         13.63951         7.84308         0.45821
C         14.86841         5.64888         0.11399
C         14.84462         8.50821         0.81245
C         13.59720        10.62715         0.89179
C         13.55289        12.11049         0.89966
C         14.83713         9.95258         0.94823
C         14.80025        12.87723         0.55194
C         13.51847        14.95185         0.16636
C         13.50030        16.36777        -0.01686
C         14.75258        14.25566         0.04601
C         14.71779        17.03021        -0.32630
C         13.47696        19.17117        -0.39317
C         14.70014        18.47333        -0.41446
C         15.98655         1.99150         0.28826
C         15.99417         3.42840         0.33986
C         17.19784         1.26419         0.22085
C         17.29488         4.09880         0.38612
C         16.05001         6.32353         0.42135
C         16.06139         7.69998         0.84130
C         17.33970         5.60545         0.38444
C         17.29155         8.17889         1.33616
C         16.02865        10.78423         0.80249
C         16.00374        12.10096         0.35898
C         17.33201        10.29012         1.13182
C         17.17119        12.71065        -0.28853
C         15.95981        14.89402        -0.34551
C         15.93609        16.31277        -0.52440
C         17.20435        14.17782        -0.52463
C         17.16258        16.98198        -0.85274
C         15.93187        19.13836        -0.48901
C         17.14709        18.43842        -0.69635
C         18.48397         1.86304         0.59421
C         18.49248         3.35488         0.86748
C         19.76846         1.27454         0.15420
C         19.79582         4.09464         0.90713
C         18.61259         6.26358         0.76873
C         18.57420         7.67171         1.04071
C         19.78463         5.56802         0.88970
C         19.78294         8.45774         1.02658
C         18.51697        10.70938         0.61631
C         18.47867        11.91545        -0.23292
C         19.81964        10.02412         1.00684
C         19.72030        12.65809        -0.49204
C         18.39327        14.80785        -0.96223
C         18.34931        16.25886        -1.16631
C         19.63418        13.97289        -1.05916
C         19.45883        17.10243        -1.70041
C         18.33366        19.16892        -0.66948
C         19.48111        18.63608        -1.36296
C         20.91081         1.98579         0.00633
C         21.05708         3.38820         0.45739
C         22.13254         4.28769        -0.03773
C         21.10248         6.27711         1.12986
C         20.99782         7.78749         0.95038
C         22.14682         5.60770         0.23427
C         22.22749         8.55522         0.86408
C         20.90266        10.44186        -0.00391
C         20.92806        11.92963        -0.35899
C         22.21922         9.84588         0.45570
C         22.11053        12.48794        -0.86210
C         20.82754        14.35772        -1.71903
C         20.78438        16.64201        -2.15910
C         22.04008        13.67208        -1.58822
C         21.88454        17.43814        -2.29402
C         20.76564        19.34462        -1.30133
C         21.89837        18.78567        -1.79450
O          7.73427         9.40529        -0.82213
O         20.85974        15.36109        -2.68762
O          2.59864         5.34010        -2.55718
O         20.74419         3.55483         1.88852
O         11.31631        11.43880         2.38756
O          2.60703        14.71473         2.11101
O         11.89650         6.21518        -1.90643
O         19.04333        18.11878        -2.67323
O         14.26711        12.77950         1.95599
O         17.55412         4.83853        -0.86106
O          8.43908         6.77032         1.72606
O         17.62667        11.87779        -1.42273
O          7.53345         5.19006        -1.60185
O          4.02061         7.73925         1.40138
O         18.34863         2.44875         1.97533
O          8.43439        11.19787         2.47006
O         17.31290         9.32118         2.14426
O          9.93841        18.21989         1.70255
O          5.17052         4.05286         0.75500
O          8.01002        14.75732         2.49464
O         12.08522        12.38703        -0.96663
H         12.74735        12.86633        -1.50871
O          5.81377        10.99351        -1.08580
H          6.34491        10.31601        -1.57267
O          1.84621        17.36592         2.02493
H          1.91723        16.47981         2.45765
O         21.52030         6.06768         2.50837
H         21.44332         5.09487         2.67466
O          2.14277         9.36736         2.36528
H          2.85945         8.71089         2.53006
O         20.53293         9.77437        -1.24532
H         21.12354        10.09765        -1.95686
O         20.21395        10.47029         2.31780
H         19.53262        10.16584         2.95412
O         12.56797         3.89851        -2.03939
H         12.26150         4.73929        -2.51500
O         14.18570         6.98906        -1.62882
H         13.37156         6.93222        -2.21596
O          5.19224         6.12000        -2.23774
H          4.47191         5.75170        -2.79844
H          0.73002         1.22320        -2.43841
H          0.81405         3.64406        -3.09939
H          2.64174         0.23766        -1.17184
H          0.76726         7.18002        -2.66547
H          0.64718         9.24286        -1.25979
H          0.10504        10.18078         0.75894
H          0.20086        12.58192         0.38378
H          0.41988        14.41793        -0.45881
H          0.41817        16.84611        -0.58022
H          1.45974        19.08217        -0.18407
H          4.86236         0.35395        -0.43523
H          3.62112        20.15680        -0.62446
H          7.35178         0.35646        -0.20153
H          6.05642        20.17173        -0.43793
H          9.80579         0.35904         0.11325
H          8.44059        20.17958        -0.52168
H         12.26190         0.33045         0.09203
H         11.02174        20.22718        -0.64967
H         14.67103         0.25347         0.18585
H         13.48114        20.26153        -0.53659
H         17.16270         0.19172        -0.02289
H         15.95987        20.23674        -0.44601
H         19.73684         0.23731        -0.21454
H         18.34513        20.20289        -0.29601
H         21.78973         1.50303        -0.44835
H         22.91735         3.84635        -0.67227
H         22.96858         6.22566        -0.16019
H         23.17201         8.06534         1.14383
H         23.15922        10.41402         0.40986
H         23.06824        11.95571        -0.79258
H         22.92289        14.05885        -2.11311
H         22.79541        17.01516        -2.73615
H         20.77926        20.33740        -0.83007
H         22.84782        19.33791        -1.78277
