         404
 CSIRO Nanostructure Databank - Neutral Graphene Oxide Data Set
C          3.11326         2.19437        -5.00077
C          2.92491         3.56497        -4.72268
C          4.21960         1.52612        -4.52135
C          3.83110         4.27854        -3.93709
C          2.74046         6.49215        -4.44927
C          2.63143         7.86016        -4.27641
C          3.71358         5.73231        -3.74781
C          3.55146         8.57036        -3.46916
C          2.29781        10.74466        -3.62965
C          2.10484        12.05414        -3.22958
C          3.41396         9.98520        -3.18731
C          2.99675        12.69468        -2.33045
C          1.68768        14.89844        -2.28713
C          1.75323        16.26515        -2.30963
C          2.74345        14.02157        -1.80503
C          2.87882        17.09049        -1.89393
C          3.16080        18.31874        -2.57047
C          5.16556         2.20458        -3.69704
C          4.95212         3.58591        -3.37445
C          6.29802         1.53048        -3.19624
C          5.85958         4.24031        -2.48707
C          4.62407         6.41011        -2.92443
C          4.60423         7.83336        -2.84818
C          5.51481         5.63350        -1.98311
C          5.66780         8.53730        -2.19051
C          4.38306        10.63389        -2.37693
C          4.16935        11.97312        -1.93064
C          5.58090         9.93867        -1.98158
C          5.13410        12.57376        -1.06139
C          3.60712        14.47973        -0.81206
C          3.74973        16.69480        -0.87028
C          4.82709        13.83549        -0.49323
C          5.02883        17.29635        -0.65525
C          4.31529        19.01358        -2.30336
C          5.30053        18.48968        -1.40427
C          7.21719         2.18245        -2.35124
C          6.95598         3.54764        -1.97471
C          8.35946         1.50721        -1.84311
C          7.88401         4.18633        -1.01726
C          6.73970         6.41871        -1.57201
C          6.78610         7.78935        -1.67028
C          7.79456         5.69602        -0.84950
C          7.99767         8.51843        -1.23443
C          6.61003        10.64604        -1.28978
C          6.39012        11.93621        -0.77723
C          7.91479        10.02588        -1.04520
C          7.40136        12.59085         0.02778
C          5.77360        14.41491         0.38467
C          6.05826        16.71134         0.15139
C          6.96420        13.77527         0.66560
C          7.40551        17.16374         0.12532
C          6.54177        19.10495        -1.21666
C          7.58363        18.46157        -0.51008
C          9.34026         2.15742        -1.05350
C          9.16502         3.53885        -0.69428
C         10.49221         1.47788        -0.59657
C         10.17071         4.24343        -0.01722
C          9.00349         6.40895        -0.40552
C          9.05660         7.80969        -0.50486
C         10.09466         5.68933         0.12857
C         10.15635         8.53975         0.00851
C          8.93139        10.69671        -0.20642
C          8.73035        12.05563         0.21056
C         10.09501         9.98629         0.12659
C          9.87426        12.81202         0.68329
C          8.75056        15.08043         0.92571
C          8.64474        16.45322         0.51781
C          9.89989        14.27815         0.76720
C          9.90726        17.09670         0.33847
C          8.82134        19.13720        -0.45443
C          9.98563        18.49539        -0.01041
C         11.48300         2.14909         0.14639
C         11.36256         3.55398         0.39502
C         12.61231         1.46103         0.68291
C         12.41089         4.23569         1.06710
C         11.20524         6.42047         0.62556
C         11.24951         7.81686         0.56010
C         12.27339         5.67814         1.33493
C         12.55084         8.54748         0.78260
C         11.20384        10.69534         0.71397
C         11.11525        12.12913         0.84495
C         12.37859        10.01222         1.06836
C         12.33836        12.83973         1.11087
C         11.14174        14.97847         0.71341
C         11.14095        16.39768         0.55884
C         12.36146        14.27919         0.93076
C         12.38440        17.10094         0.57596
C         11.21413        19.18805         0.03436
C         12.41660        18.52981         0.36408
C         13.60818         2.13184         1.36585
C         13.55806         3.55510         1.51337
C         14.68630         1.34081         2.05898
C         14.69660         4.28604         2.06683
C         13.45446         6.42214         1.91024
C         13.56160         7.87468         1.67986
C         14.67705         5.66061         2.20980
C         14.67250         8.58905         2.11398
C         13.51717        10.71257         1.56024
C         13.50288        12.14831         1.49111
C         14.66387        10.02266         2.01724
C         14.75582        12.85086         1.70057
C         13.56934        14.98986         0.97036
C         13.60063        16.40427         0.80663
C         14.81844        14.23972         1.18385
C         14.83741        17.14243         0.92224
C         13.63404        19.23517         0.45172
C         14.84800        18.57338         0.75600
C         15.94760         2.13348         2.28453
C         15.92193         3.54669         2.34351
C         17.14026         1.43833         2.46303
C         17.13243         4.25816         2.60033
C         15.80938         6.39929         2.89355
C         15.87075         7.89859         2.61426
C         17.13743         5.69546         2.72924
C         17.01561         8.58970         2.92248
C         15.68691        10.81980         2.78455
C         15.85988        12.22015         2.22160
C         17.01627        10.08268         3.03407
C         17.10714        12.97922         2.53380
C         16.07128        15.02183         1.35028
C         16.04362        16.49129         1.24248
C         17.18869        14.42037         2.12708
C         17.26085        17.18877         1.39066
C         16.06553        19.27691         0.88615
C         17.27749        18.61313         1.18936
C         18.36122         2.11928         2.68566
C         18.33542         3.54036         2.78868
C         19.59220         1.39969         2.65212
C         19.56467         4.27561         3.07930
C         18.32616         6.40025         2.89379
C         18.28884         7.85311         3.19750
C         19.59291         5.73252         2.93748
C         19.62214         8.57549         3.26705
C         18.33525        10.82664         3.05547
C         18.40243        12.26499         2.66529
C         19.63822        10.07553         3.17452
C         19.59396        12.92310         2.43607
C         18.48851        15.08998         1.97434
C         18.48736        16.48156         1.66819
C         19.67521        14.35893         2.16792
C         19.71349        17.18596         1.70300
C         18.50866        19.30308         1.27982
C         19.71987        18.61611         1.52553
C         20.83008         2.04615         2.62797
C         20.89953         3.48909         2.94665
C         22.02556         1.36287         2.33057
C         22.07150         4.25830         2.55341
C         20.83677         6.41702         2.87107
C         20.87824         7.85263         2.91213
C         22.05350         5.67265         2.59924
C         22.08371         8.54511         2.66697
C         20.91353        10.77155         2.85169
C         20.86454        12.16054         2.31192
C         22.16764        10.00389         2.65402
C         22.17927        12.86988         2.15094
C         20.92584        15.04450         2.11880
C         20.93350        16.47900         1.95846
C         22.18188        14.34710         2.20077
C         22.14412        17.19512         2.03005
C         20.94894        19.30483         1.59831
C         22.15719        18.61324         1.83518
C         23.25532         2.04473         2.19619
C         23.26426         3.51146         2.22992
C         24.43755         1.33271         1.93363
C         24.44656         4.18169         1.99952
C         23.24094         6.40689         2.25070
C         23.25978         7.79756         2.30916
C         24.43271         5.64316         1.80266
C         24.50534         8.57259         2.03870
C         23.36955        10.69882         2.59808
C         23.44078        12.14182         2.45932
C         24.62105         9.86326         2.82596
C         24.63634        12.85559         2.46813
C         23.39489        15.01922         2.26604
C         23.40319        16.51118         2.49451
C         24.65424        14.30419         2.27231
C         24.64930        17.18893         1.99594
C         23.39270        19.31072         1.81961
C         24.62546        18.61112         1.80157
C         25.71049         1.96895         1.83541
C         25.72279         3.44263         2.01097
C         26.88018         1.25910         1.61743
C         27.01244         4.17346         1.76724
C         25.73128         6.37007         1.51978
C         25.77080         7.86094         1.68709
C         27.00965         5.63081         1.53005
C         27.07305         8.52740         1.92484
C         25.94550        10.62794         2.65574
C         25.93047        12.13298         2.64274
C         27.15941         9.89101         2.17216
C         27.21522        12.88034         2.37733
C         25.84145        15.02733         2.06777
C         25.83413        16.46139         1.84762
C         27.16551        14.35913         2.10094
C         27.04565        17.15336         1.48398
C         25.82399        19.29253         1.52264
C         27.03419        18.58511         1.34462
C         28.22083         1.86704         1.48555
C         28.26261         3.39643         1.44824
C         29.37471         0.98541         1.08381
C         29.32437         4.20633         0.78860
C         28.21230         6.30246         1.40286
C         28.28105         7.74303         1.69478
C         29.40375         5.60909         0.98227
C         29.54196         8.50798         1.20803
C         28.36160        10.61371         1.80062
C         28.44797        12.09391         2.00778
C         29.40055         9.96536         1.14208
C         29.60113        12.87162         1.40150
C         28.32232        15.02586         1.44678
C         28.25383        16.45004         1.22487
C         29.47202        14.32367         1.11967
C         29.40822        17.14889         0.78024
C         28.21810        19.27838         1.00407
C         29.40834        18.58694         0.70341
C         30.33952         1.41332         0.19510
C         30.25743         3.60579        -0.04979
C         31.71488         1.09294         0.03439
C         31.52283         4.17984        -0.34636
C         30.51038         6.33448         0.39502
C         30.50061         7.74608         0.39311
C         31.60316         5.59458        -0.20319
C         31.49194         8.47473        -0.40715
C         30.41681        10.71869         0.37623
C         30.62140        12.14085         0.62723
C         31.52442         9.97483        -0.34811
C         31.68755        12.80801         0.04402
C         30.58346        14.98565         0.47208
C         30.57690        16.43247         0.37288
C         31.68188        14.24791         0.01984
C         31.70493        17.13868        -0.08050
C         30.58834        19.27562         0.32538
C         31.75260        18.57598        -0.05807
C         32.70221         1.93666        -0.56966
C         32.61439         3.36492        -0.78114
C         33.98046         1.30596        -0.75393
C         33.77082         4.09442        -1.34147
C         32.77383         6.26007        -0.70351
C         32.69064         7.72277        -0.90378
C         33.84738         5.56158        -1.22192
C         33.98637         8.44794        -1.00287
C         32.78926        10.69465        -0.55452
C         32.83286        12.07267        -0.48064
C         34.03369         9.92602        -0.76987
C         34.08355        12.79056        -0.73764
C         32.81206        14.90971        -0.63958
C         32.84492        16.42207        -0.65965
C         34.08451        14.16707        -0.74605
C         34.13294        17.11855        -0.82946
C         32.93732        19.24697        -0.46351
C         34.12963        18.55221        -0.81553
C         35.14557         1.94986        -1.16334
C         35.08527         3.35541        -1.59934
C         36.41012         1.30441        -1.15261
C         36.34369         4.12315        -1.70586
C         34.99541         6.26211        -1.94243
C         35.13898         7.73295        -1.59683
C         36.32914         5.53283        -1.83142
C         36.28570         8.41686        -1.83959
C         35.21864        10.66590        -1.23751
C         35.28310        12.04436        -1.11615
C         36.28793         9.90223        -1.87918
C         36.54279        12.72649        -1.35278
C         35.34202        14.93408        -0.80005
C         35.31861        16.39751        -1.03828
C         36.63491        14.17614        -1.03769
C         36.51931        17.07090        -1.38520
C         35.32652        19.22247        -1.14855
C         36.50323        18.50602        -1.47760
C         37.59262         1.99188        -1.45701
C         37.56809         3.41928        -1.69588
C         38.85229         1.31517        -1.49807
C         38.78177         4.11740        -1.96338
C         37.53730         6.22875        -2.01487
C         37.62961         7.73197        -1.86796
C         38.76183         5.52938        -2.16000
C         38.66356         8.38569        -2.80606
C         37.57453        10.64024        -2.23880
C         37.66038        12.03980        -1.79433
C         38.81117         9.87144        -2.49138
C         38.99265        12.67516        -1.81577
C         37.78259        14.94864        -1.54593
C         37.73094        16.34079        -1.68285
C         39.04104        14.22843        -1.74585
C         38.90813        17.05436        -2.12880
C         37.67789        19.18241        -1.88266
C         38.85783        18.48326        -2.22582
C         40.01753         1.99205        -1.77574
C         40.01503         3.39812        -2.01455
C         41.20921         4.11174        -2.29490
C         39.98876         6.23761        -2.47362
C         39.97968         7.63490        -2.72930
C         41.19389         5.47353        -2.51904
C         41.16741         8.37478        -2.95934
C         40.01651        10.53156        -2.66613
C         40.11312        11.98222        -2.47360
C         41.19036         9.75352        -2.97440
C         41.21978        12.72619        -2.83865
C         40.17963        14.91343        -2.36848
C         40.10517        16.36670        -2.49128
C         41.24961        14.14925        -2.79945
C         41.21056        17.11324        -2.94261
C         40.00532        19.19416        -2.67579
C         41.15712        18.51138        -3.02994
O         29.89604         2.43188        -0.68532
O         15.79840        14.35476         0.06592
O         26.13573        11.39077         3.89966
O         31.62355         8.05936        -1.83329
O          8.50964         9.43076        -2.26106
O         18.94659         8.11970         4.48297
O         29.39299         8.02807         2.58485
O         32.46540        15.63988        -1.87343
O         12.30069         6.03044         2.76743
O         27.47987        13.83236         3.44857
O         20.32657         3.81098         4.24280
O         29.59550        12.48068         2.82778
O         39.36931        13.37295        -0.59481
O         26.55297         3.90777         3.14558
O         28.69446         2.67311         2.64703
O          5.61336        15.66975         0.99897
O          7.72443        14.44378         1.62892
O         20.45094        10.68755         4.24304
O         36.54191        10.38919        -3.26987
O         17.57128        10.58294         4.29630
O          3.30781        15.63170        -0.06227
O         30.37188        10.49185        -1.09383
O         24.86462         5.96151         0.40679
O         36.23006        14.55619         0.32326
O         21.46387        12.29237         0.98242
O         16.86984        14.06270         3.51906
O          7.23073         4.77880         0.17191
O         34.15274         3.61466        -2.70903
O         24.97397         8.59694         0.66872
O         34.34410         8.97817         0.34455
O         23.42552        16.68692         3.96895
H         22.61669        16.26229         4.32689
O         38.18518         8.29253        -4.17139
H         37.42935         8.92372        -4.25454
O         15.07567        11.00692         4.09792
H         15.81005        11.23485         4.71615
O         14.17583         0.89621         3.33511
H         13.96685         1.68987         3.87033
O         15.49104         6.31001         4.32498
H         16.19793         6.77816         4.81991
O          4.72683         5.43727        -0.76097
H          5.35003         5.05467        -0.09433
O         34.64591         6.24273        -3.35867
H         34.42804         5.30227        -3.57650
O         24.57733         9.41521         4.20381
H         24.91718        10.15628         4.75808
O         13.20259         8.50092        -0.56375
H         12.63970         9.02564        -1.17400
O         38.15918         7.97189        -0.52500
H         37.53800         7.58619         0.12850
H          2.37601         1.66730        -5.62229
H          2.04255         4.06277        -5.14638
H          4.37796         0.46364        -4.75493
H          2.02612         5.99009        -5.11534
H          1.82454         8.39618        -4.79433
H          1.54925        10.28116        -4.28662
H          1.21358        12.59110        -3.58211
H          0.82253        14.43057        -2.78165
H          0.94163        16.79568        -2.83413
H          2.44925        18.69077        -3.32153
H          6.46627         0.47853        -3.47028
H          4.53249        19.95337        -2.83003
H          8.50326         0.44747        -2.10017
H          6.75365        20.06679        -1.70527
H         10.61552         0.40892        -0.82398
H          8.88226        20.16730        -0.83485
H         12.67250         0.36847         0.56866
H         11.22971        20.26280        -0.19851
H         14.91962         0.41455         1.47479
H         13.63655        20.32388         0.29524
H         17.14357         0.34083         2.39276
H         16.07366        20.36680         0.73714
H         19.55515         0.31274         2.48603
H         18.52966        20.39359         1.13727
H         21.99838         0.27194         2.19135
H         20.97002        20.39519         1.45506
H         24.38697         0.23685         1.84685
H         23.39221        20.40136         1.67729
H         26.80576         0.17025         1.47108
H         25.81081        20.38426         1.38980
H         29.59848         0.15992         1.77671
H         28.19500        20.37571         0.93343
H         32.07038         0.13224         0.43741
H         30.58425        20.37526         0.30478
H         34.05916         0.24387        -0.47377
H         32.94637        20.34688        -0.46911
H         36.45819         0.23492        -0.89816
H         35.34599        20.32197        -1.16628
H         38.87424         0.23177        -1.31092
H         37.66687        20.28002        -1.95509
H         40.97453         1.45135        -1.80973
H         42.16022         3.56154        -2.34240
H         42.14475         5.97189        -2.75021
H         42.12442         7.84691        -3.07651
H         42.14904        10.26414        -3.13457
H         42.09081        12.22452        -3.28241
H         42.13841        14.63956        -3.22001
H         42.14183        16.60230        -3.22101
H         39.96320        20.29046        -2.74369
H         42.03974        19.06466        -3.37964
