         314
 CSIRO Nanostructure Databank - Neutral Graphene Oxide Data Set
C         30.39889        57.02302        -0.86685
C         30.40089        58.42066        -1.07859
C         29.20474        59.13116        -1.36726
C         30.41625        61.23366        -1.47330
C         29.22570        60.51427        -1.55595
C         32.77112        52.77279         0.14676
C         32.73207        54.26399         0.40000
C         31.54028        54.95413        -0.20070
C         32.84193        57.05256        -0.50191
C         31.58336        56.31240        -0.53026
C         32.84767        58.46516        -0.71894
C         31.63120        59.15334        -0.99144
C         32.86930        61.27510        -1.13184
C         31.64469        60.57010        -1.19611
C         35.21860        48.48995         0.87814
C         35.09029        49.94395         1.24646
C         34.01473        50.64562         0.44602
C         35.14458        52.82795         0.82663
C         33.93868        52.04251         0.41211
C         35.27947        54.15273         0.12464
C         34.01662        54.90679        -0.09901
C         35.29623        57.05955        -0.29889
C         34.06053        56.37492        -0.30139
C         35.30241        58.49274        -0.46603
C         34.07561        59.18422        -0.67932
C         35.32859        61.30553        -0.87327
C         34.09307        60.60731        -0.89162
C         37.66322        44.27819         0.18052
C         37.61706        45.65910         0.47734
C         36.44248        46.41202         0.46225
C         37.71911        48.57684         0.79219
C         36.40564        47.82261         0.75349
C         37.60453        49.99404         1.33602
C         36.42454        50.66955         1.29799
C         37.64338        52.94276         1.42062
C         36.36122        52.15760         1.38412
C         37.74030        54.29366         0.82254
C         36.62956        54.84297        -0.04118
C         37.71867        57.06680         0.03347
C         36.53851        56.36515        -0.03337
C         37.77366        58.46998        -0.41483
C         36.51896        59.21711        -0.49972
C         37.80954        61.34192        -0.67604
C         36.55565        60.63086        -0.69390
C         40.10980        40.05140        -0.25719
C         40.11750        41.44844        -0.20949
C         38.90528        42.17065        -0.05878
C         40.14836        44.28490         0.23656
C         38.88166        43.55844         0.14364
C         40.14211        45.60176         0.66228
C         38.86590        46.28003         0.99424
C         40.19894        48.42603         1.54676
C         38.86675        47.73796         1.35162
C         40.17015        49.90883         1.78361
C         38.87624        50.67774         1.73080
C         40.17536        52.81717         1.11477
C         38.91450        52.19191         1.66649
C         40.20129        54.33993         1.10784
C         38.94930        54.98049         0.82904
C         40.25530        57.20060         0.53740
C         38.94611        56.44370         0.56666
C         40.31938        58.58428         0.01031
C         39.07695        59.23393        -0.44517
C         40.29116        61.39557        -0.44004
C         39.04446        60.71294        -0.50534
C         42.55593        35.77971         0.16956
C         42.52890        37.10152        -0.48041
C         41.30584        37.91379        -0.37816
C         42.52338        40.04389        -0.84710
C         41.29889        39.28927        -0.47103
C         42.57430        41.49615        -0.55269
C         41.38023        42.18209        -0.29182
C         42.61369        44.30443        -0.20827
C         41.38767        43.60056        -0.10002
C         42.60140        45.77715        -0.06477
C         41.34362        46.43030         0.44383
C         42.71713        48.53845         0.88732
C         41.48016        47.75076         1.12964
C         42.70536        49.92058         1.15530
C         41.49587        50.63687         1.68313
C         42.61010        52.83272         1.03885
C         41.44856        52.14291         1.61420
C         42.69553        54.31047         1.17767
C         41.41976        55.04748         0.98738
C         42.75143        57.12575         0.55994
C         41.50578        56.43178         0.68138
C         42.77133        58.53385         0.07621
C         41.49760        59.27772        -0.04207
C         42.75931        61.41839        -0.23063
C         41.52293        60.71785        -0.28413
C         45.13724        33.11151         0.77180
C         43.93752        33.80638         0.88593
C         44.92125        36.04786         0.55517
C         43.76278        35.19350         0.53075
C         45.07614        37.24985        -0.14098
C         43.84925        37.81617        -0.77584
C         45.10885        40.04837        -0.99349
C         43.81427        39.29377        -1.05409
C         45.05467        41.50471        -0.79600
C         43.83404        42.18704        -0.58062
C         45.08663        44.34456        -0.46848
C         43.83409        43.62034        -0.43594
C         45.05412        45.83436        -0.47027
C         43.86722        46.53234         0.03326
C         45.15971        48.63914         0.21088
C         43.89946        47.89578         0.33989
C         45.20271        50.07167         0.72151
C         43.80677        50.68492         0.68824
C         45.42035        53.17865         0.37145
C         43.56856        52.05909         0.44411
C         45.31602        54.39156         0.97596
C         43.99965        55.07053         1.17492
C         45.19259        57.30586         1.07944
C         43.96585        56.52306         0.88375
C         45.28029        58.68989         0.60927
C         44.05781        59.31395         0.06611
C         45.22307        61.49059         0.12119
C         44.01121        60.79578        -0.00339
C         46.41199        33.61889         0.41161
C         47.73811        35.77938        -0.03421
C         46.74763        34.97842         0.54991
C         47.61609        37.20642        -0.10130
C         46.34529        37.88344        -0.22224
C         47.55529        40.12434        -0.06061
C         46.39149        39.30193        -0.64497
C         47.63852        41.52780        -0.66607
C         46.31157        42.25610        -0.84578
C         47.56806        44.40685        -0.11235
C         46.29959        43.69403        -0.57684
C         47.62399        45.82981        -0.63154
C         46.33268        46.60627        -0.60620
C         47.62323        48.70878        -0.09778
C         46.33489        48.02147        -0.16612
C         47.63972        50.16862         0.05315
C         46.43393        50.87651         0.25224
C         47.78754        52.96270         0.38955
C         46.55444        52.28655         0.38723
C         47.83559        54.36697         0.85243
C         46.58545        55.06677         1.32857
C         47.77910        57.28722         0.96413
C         46.57622        56.56737         1.34453
C         47.73524        58.72059         0.86050
C         46.46700        59.40270         0.66394
C         47.69254        61.52498         0.34460
C         46.47834        60.83279         0.36001
C         48.81452        37.96568        -0.27908
C         50.04543        40.09512        -0.44785
C         48.85935        39.36739        -0.32094
C         50.09554        41.52655        -0.37209
C         48.87755        42.27956        -0.36138
C         50.12996        44.36600        -0.07487
C         48.89395        43.67087        -0.25503
C         50.10173        45.81652         0.05089
C         48.89970        46.56081        -0.42019
C         50.07530        48.73261         0.12042
C         48.81085        48.01277        -0.15525
C         50.13019        50.13943        -0.34375
C         48.86217        50.87696        -0.13131
C         50.20417        53.00862        -0.22303
C         48.94526        52.26460         0.02884
C         50.18059        54.49965        -0.07051
C         48.97742        55.19023         0.44021
C         50.18511        57.33158         0.15150
C         48.95050        56.56333         0.54938
C         50.20371        58.68954         0.81675
C         48.93116        59.44327         0.76446
C         50.18225        61.54653         0.58957
C         48.95956        60.87003         0.57270
C         51.31190        42.23358        -0.38369
C         52.66520        44.26519        -0.43230
C         51.37492        43.63827        -0.23140
C         53.01062        45.51505         0.09958
C         51.16703        46.53741         0.52970
C         52.67356        48.63537         0.15100
C         51.33898        48.00182         0.41382
C         52.70035        50.03702         0.03154
C         51.45907        50.81322        -0.23349
C         52.67919        52.94517         0.01113
C         51.49268        52.28261        -0.10757
C         52.71325        54.44093        -0.21642
C         51.45761        55.20433         0.12694
C         52.72523        57.29316         0.39924
C         51.47082        56.55398         0.32633
C         52.74077        58.70098         0.54258
C         51.49928        59.40932         0.95264
C         52.73334        61.56178         0.55473
C         51.47663        60.92933         1.10393
C         53.96722        46.46670        -0.29827
C         55.10170        48.63030        -0.17694
C         53.90552        47.89249        -0.03736
C         55.16134        50.04806        -0.08575
C         53.92348        50.76884        -0.01274
C         55.16191        52.88761         0.07150
C         53.93916        52.20455         0.02787
C         55.20112        54.33492         0.37564
C         53.91722        55.11033         0.38121
C         55.18065        57.25781         0.30294
C         53.94748        56.58637         0.32144
C         55.17792        58.68673         0.27089
C         53.95103        59.40254         0.42019
C         55.16673        61.53029         0.15846
C         53.93178        60.86272         0.39005
C         56.38181        50.77121        -0.13954
C         57.61858        52.93690        -0.07250
C         56.40965        52.18478        -0.04582
C         57.65511        54.36330        -0.00753
C         56.44282        55.09733         0.21104
C         57.63877        57.23315         0.03318
C         56.42243        56.51201         0.20522
C         57.62963        58.66405        -0.00927
C         56.40625        59.38915         0.11237
C         57.62183        61.50805        -0.12665
C         56.39389        60.82873         0.04759
C         58.85952        55.09212        -0.14262
C         60.07644        57.23999        -0.27982
C         58.87319        56.51033        -0.12152
C         60.08437        58.65322        -0.31051
C         58.85123        59.37315        -0.18409
C         60.07991        61.48952        -0.40746
C         58.84504        60.80554        -0.23777
C         61.29140        59.38676        -0.47755
C         61.27558        60.78033        -0.52184
O         38.29072        52.87559         2.76045
O         45.91107        35.69657         1.45694
O         34.60251        54.11316        -1.18700
O         50.17219        57.54675        -1.33142
O         45.50691        46.36815        -1.78928
O         38.61437        46.76496         2.38298
O         47.41520        40.24532         1.31029
O         47.48250        54.46655         2.30189
O         43.00968        39.68626        -2.19603
O         54.42662        54.59985         1.63617
O         41.66272        51.48872         2.88077
O         41.03930        47.73425         2.52374
O         50.88256        58.72331         2.11804
O         47.18277        41.81586        -1.99557
O         48.45694        46.11948        -1.77478
O         43.36171        54.69351         2.45140
O         43.22106        37.02942        -1.81289
O         46.06617        39.56824        -2.02120
O         38.57642        58.58861        -1.67784
O         50.08406        53.88315        -1.42496
O         39.41625        57.18318         1.76440
O         52.19624        45.89433         1.20236
O         50.56258        48.64948         1.51372
O         35.35219        52.76843         2.27382
O         41.67141        46.47975        -0.98731
O         43.57282        58.65465        -1.16846
O         39.41934        50.19628         3.00291
O         44.39783        52.72583        -0.45612
O         45.79148        57.13452         2.41275
O         50.86266        50.40673        -1.56689
O         48.91053        58.21218        -1.65603
H         48.81038        57.97819        -2.61088
O         32.69575        54.48966         1.85062
H         31.92256        54.01049         2.21487
O         34.58775        49.99186         2.62678
H         34.67166        50.92999         2.92326
O         40.13884        52.42018        -0.30514
H         40.80328        52.94776        -0.79823
O         45.48164        49.95861         2.16268
H         44.69936        49.55790         2.60018
O         52.84573        54.59897        -1.66506
H         51.98727        54.30603        -2.05731
O         37.09022        54.52102        -1.39462
H         36.28384        54.50370        -1.96441
O         47.36649        44.57670         1.33060
H         47.46021        43.70017         1.76311
O         38.13519        48.77683        -0.60210
H         37.38943        49.18068        -1.09447
O         51.48040        61.23750         2.53568
H         51.11289        60.44164         2.98992
H         29.44588        56.47539        -0.91805
H         28.25602        58.58012        -1.43746
H         30.41644        62.32195        -1.62849
H         28.28765        61.04370        -1.77487
H         31.84158        52.24077        -0.10767
H         30.56950        54.43378        -0.20433
H         32.87245        62.36344        -1.29391
H         34.27902        47.91890         0.80972
H         33.11214        50.06221         0.20473
H         35.32781        62.39483        -1.02740
H         36.72761        43.74736        -0.05211
H         35.48877        45.90746         0.24223
H         37.77853        62.43697        -0.78193
H         39.16021        39.51549        -0.11096
H         37.95490        41.61731        -0.09012
H         40.29770        62.49204        -0.53600
H         41.60888        35.23361         0.29810
H         40.37926        37.39808        -0.08209
H         42.73610        62.51378        -0.34090
H         45.06110        32.01403         0.84011
H         43.02360        33.21542         1.04901
H         45.22266        62.58601         0.00982
H         47.15035        32.92149        -0.00921
H         48.63210        35.31559        -0.47642
H         47.69012        62.60806         0.14931
H         49.76899        37.41483        -0.27059
H         50.98664        39.55176        -0.63110
H         50.17952        62.63858         0.44528
H         52.25188        41.67092        -0.48385
H         53.38052        43.73947        -1.08299
H         52.75577        62.66149         0.50142
H         54.81096        46.12321        -0.91710
H         56.04012        48.07754        -0.33395
H         55.17752        62.62940         0.10939
H         57.32914        50.21945        -0.23137
H         58.57087        52.39700        -0.18493
H         57.62756        62.60728        -0.17480
H         59.80596        54.55054        -0.28662
H         61.02500        56.69430        -0.39366
H         60.08405        62.58813        -0.44767
H         62.24164        58.84227        -0.57325
H         62.21944        61.32847        -0.65143
