         668
 CSIRO Nanostructure Databank - Neutral Graphene Oxide Data Set
C          5.80807        31.76492        -0.04829
C          5.90441        33.06064        -0.40982
C          8.43864        27.61455        -0.36976
C          8.35595        29.02567         0.17680
C          7.14402        29.65365         0.15093
C          8.19965        31.80317         0.72779
C          6.89339        31.04269         0.70749
C          8.29194        33.08315         0.26766
C          7.12339        33.82417        -0.20429
C          8.33799        35.99058        -0.22779
C          7.15532        35.19324        -0.40452
C          8.35273        37.37415        -0.27527
C         10.86494        23.29401        -0.11113
C         10.81379        24.65542         0.13023
C          9.66443        25.47018        -0.13670
C         10.82452        27.54633         0.54035
C          9.66390        26.83983         0.05912
C         10.73559        28.95259         0.85876
C          9.55010        29.66741         0.68840
C         10.67761        31.85041         1.37494
C          9.36853        31.04638         1.32999
C         10.79340        33.17662         0.75047
C          9.60237        33.75719         0.14249
C         10.85219        35.97356         0.21167
C          9.62128        35.26653        -0.11245
C         10.77493        37.45434         0.48005
C          9.55532        38.14125        -0.09649
C         10.79028        40.29006        -0.12702
C          9.58061        39.51465        -0.24766
C         10.79034        41.67690        -0.16146
C         13.32143        18.97838        -0.29086
C         13.31501        20.39598        -0.17635
C         12.10653        21.13607        -0.23457
C         13.32248        23.19546         0.21898
C         12.09078        22.53016        -0.02158
C         13.31753        24.61394         0.60305
C         12.01132        25.35467         0.62812
C         13.27219        27.46052         0.98409
C         12.04415        26.83178         0.69253
C         13.25222        28.85611         1.44320
C         11.92919        29.59620         1.48289
C         13.24556        31.80585         1.29198
C         11.97222        31.09992         1.53729
C         13.26267        33.16088         1.00670
C         12.01408        33.84806         0.67190
C         13.32952        35.97348         0.14089
C         12.02220        35.26770         0.38163
C         13.28857        37.47611         0.31898
C         12.06968        38.17293         0.20158
C         13.27732        40.27179        -0.07068
C         12.06017        39.57347         0.02134
C         13.28790        41.72350        -0.47729
C         12.00529        42.44559        -0.15010
C         13.25992        44.57291         0.09482
C         12.02729        43.81115         0.00524
C         13.23852        45.94831         0.13290
C         15.74000        14.65273        -0.63809
C         15.67807        16.09611        -0.46186
C         14.51711        16.78872        -0.27308
C         15.73203        18.93718         0.05271
C         14.51059        18.24832        -0.17118
C         15.77262        20.34609         0.13456
C         14.55525        21.08099         0.03027
C         15.78826        23.16939         0.50251
C         14.56390        22.49632         0.22479
C         15.76171        24.60514         0.97685
C         14.59349        25.38461         0.35551
C         15.74019        27.49547         1.03543
C         14.54073        26.80930         0.86050
C         15.73831        28.91831         1.33067
C         14.52285        29.59670         1.45837
C         15.79250        31.80805         1.53206
C         14.48153        31.05908         1.62801
C         15.76213        33.23012         1.15302
C         14.53061        33.89488         0.94967
C         15.76022        35.99901         0.71813
C         14.54797        35.29306         0.70963
C         15.77051        37.51263         0.79020
C         14.50088        38.18455         0.31809
C         15.74624        40.31446        -0.04572
C         14.50316        39.58595         0.08786
C         15.76432        41.71369        -0.04441
C         14.53356        42.45224        -0.03518
C         15.77433        44.53863         0.25279
C         14.52801        43.83659         0.13895
C         15.79271        45.98923         0.49189
C         14.44428        46.74721         0.41129
C         15.73066        48.85516         0.13402
C         14.53432        48.16907         0.09967
C         15.66294        50.37421         0.12947
C         18.13246        10.39913        -1.04281
C         18.12915        11.76524        -0.93540
C         16.87693        12.52034        -1.32812
C         18.20211        14.68580        -1.15187
C         16.88596        13.97220        -0.91591
C         18.18874        16.03663        -0.45761
C         16.95802        16.89449        -0.63601
C         18.25035        18.89383         0.23508
C         16.96164        18.11202         0.31564
C         18.25564        20.31957         0.36209
C         17.01695        21.04623         0.32504
C         18.26555        23.17804         0.62444
C         17.02348        22.46743         0.48554
C         18.26779        24.62917         0.74423
C         17.05961        25.32784         0.77972
C         18.28523        27.44865         1.14728
C         17.03398        26.82451         0.59847
C         18.25615        28.86669         1.65930
C         16.99368        29.63895         1.35482
C         18.24045        31.76789         1.14093
C         17.02852        31.03067         1.32775
C         18.24369        33.16339         1.07208
C         16.99675        33.90893         1.02251
C         18.25464        36.03708         0.74513
C         16.99473        35.31445         0.82212
C         18.29052        37.42502         0.45643
C         17.00745        38.09930         0.14552
C         18.30525        40.28685        -0.45072
C         16.99375        39.54418        -0.23453
C         18.24361        41.74779        -0.07035
C         17.02694        42.43030        -0.01661
C         18.23244        44.60269         0.04788
C         16.99638        43.86498         0.10556
C         18.23337        46.02206         0.01875
C         17.01743        46.75547         0.20927
C         18.26516        48.89427        -0.04743
C         16.99113        48.15620         0.17006
C         18.21494        50.37262        -0.32192
C         16.91847        51.09035        -0.31227
C         18.15113        53.18099        -0.73834
C         16.92589        52.43687        -0.50175
C         18.22987        54.50502        -0.41768
C         20.63168         6.11362        -1.50151
C         20.52922         7.38521        -0.70982
C         19.32583         8.24639        -1.04311
C         20.45452        10.25439        -0.10244
C         19.29168         9.57932        -0.75022
C         20.45240        11.74545         0.02943
C         19.31388        12.49960        -0.53346
C         20.66721        14.55804        -0.49985
C         19.41091        13.87671        -0.68342
C         20.70151        16.04121        -0.80056
C         19.47415        16.72830        -0.21491
C         20.68575        18.87119         0.09064
C         19.47627        18.19704         0.04362
C         20.74832        20.25033         0.68819
C         19.47610        21.03314         0.48941
C         20.74456        23.15363         0.69422
C         19.49854        22.45646         0.60035
C         20.81622        24.66380         0.57893
C         19.50685        25.35622         0.81734
C         20.71786        27.44728         1.74480
C         19.47280        26.73509         1.19445
C         20.71075        28.91015         1.35637
C         19.53864        29.58229         1.27479
C         20.75842        31.75996         1.01181
C         19.48091        31.00346         0.76703
C         20.73386        33.19627         1.06363
C         19.49255        33.90073         1.03297
C         20.68434        36.09822         1.17141
C         19.45812        35.31661         0.94042
C         20.71073        37.52826         0.81613
C         19.50854        38.16896         0.42635
C         20.70973        40.31910         0.18479
C         19.52620        39.59038         0.12991
C         20.72313        41.75429         0.07277
C         19.48067        42.45834         0.00938
C         20.69411        44.59095        -0.11761
C         19.46098        43.88163        -0.00563
C         20.65727        45.98538        -0.37758
C         19.45885        46.72457        -0.25907
C         20.67444        48.80693        -0.86581
C         19.48002        48.13587        -0.42289
C         20.56279        50.20847        -1.37687
C         19.30094        50.97514        -1.17095
C         20.66630        53.13299        -1.15639
C         19.30728        52.49205        -1.43268
C         20.68429        54.55853        -0.89303
C         19.45176        55.26256        -0.55856
C         20.64690        57.41290        -0.41198
C         19.45619        56.62447        -0.31027
C         20.70450        58.73623        -0.00433
C         23.12847         3.47843        -2.32961
C         21.91433         4.12744        -2.17943
C         23.11560         6.17624        -1.55058
C         21.86382         5.48980        -1.74433
C         23.09354         7.61923        -1.23636
C         21.78618         8.23687        -0.85913
C         23.05505        10.30596        -0.08552
C         21.78317         9.54565        -0.13728
C         23.06588        11.67972         0.08946
C         21.80667        12.46007         0.16565
C         23.12982        14.57339        -0.14155
C         21.84903        13.88971        -0.19673
C         23.12744        16.03166        -0.13266
C         21.97090        16.71315        -0.36688
C         23.18968        18.94755        -0.39901
C         21.91616        18.19421        -0.35264
C         23.17592        20.35856         0.07513
C         22.01342        21.01623         0.38240
C         23.19619        23.13445         0.87733
C         21.98617        22.45182         0.66683
C         23.22833        24.52014         1.39420
C         21.89673        25.24458         1.54236
C         23.21851        27.42718         1.09680
C         22.00941        26.73964         1.39355
C         23.23887        28.86743         0.97015
C         22.03115        29.62880         1.48354
C         23.21040        31.80852         0.96164
C         21.95027        31.07293         1.06185
C         23.16361        33.24496         0.69168
C         21.98423        33.90445         1.00835
C         23.31646        36.07387         1.31818
C         21.98383        35.34964         1.30075
C         23.16999        37.53902         0.92191
C         21.96233        38.19869         0.74042
C         23.23308        40.38604         0.55026
C         22.02003        39.58417         0.13031
C         23.22332        41.82106         0.41155
C         21.95026        42.49498         0.17044
C         23.16047        44.71225         0.28530
C         21.92506        43.88793         0.03743
C         23.17366        45.96134        -0.58039
C         21.87001        46.66515        -0.83623
C         23.09313        48.76702        -1.66732
C         21.84978        48.10665        -1.09420
C         23.08100        50.25363        -1.39372
C         21.82047        50.97331        -1.82030
C         23.12151        53.11479        -1.40354
C         21.84168        52.43512        -1.38858
C         23.09845        54.58052        -1.41510
C         21.86261        55.27844        -1.04646
C         23.20187        57.47577        -0.66634
C         21.85586        56.74378        -0.92147
C         23.18208        58.76617         0.02242
C         21.94626        59.43575         0.19964
C         23.16447        61.39117         1.01165
C         21.95530        60.75771         0.71215
C         24.33741         4.15685        -2.10494
C         25.65212         6.25247        -1.66016
C         24.33320         5.51569        -1.73630
C         25.60239         7.60692        -0.97760
C         24.33865         8.29325        -0.79449
C         25.53337        10.22875         0.28267
C         24.29189         9.56669        -0.25810
C         25.52237        11.71872         0.02494
C         24.33359        12.40978         0.01547
C         25.60732        14.57405         0.01152
C         24.32757        13.86707        -0.04282
C         25.64836        15.98532         0.11778
C         24.37748        16.79780         0.28076
C         25.69717        18.89805        -0.04638
C         24.48815        18.13203        -0.50830
C         25.72134        20.29302         0.08734
C         24.45539        21.08024        -0.00634
C         25.71224        23.14716         0.82421
C         24.44567        22.52363         0.42467
C         25.76921        24.45841         1.17309
C         24.52460        25.28217         1.29658
C         25.62480        27.42868         0.50957
C         24.47593        26.72624         0.93621
C         25.62174        28.83813         0.43292
C         24.42983        29.56139         0.68904
C         25.64648        31.81460         0.21329
C         24.48741        31.05715         0.76512
C         25.64793        33.18323        -0.00169
C         24.29618        33.95456        -0.02112
C         25.25945        36.25973        -0.10778
C         24.33011        35.41572         0.40152
C         25.54147        37.57691         0.39524
C         24.39920        38.27231         0.76246
C         25.74048        40.38004         0.96654
C         24.40429        39.71102         0.78508
C         25.71455        41.83385         0.55508
C         24.43596        42.52045         0.43709
C         25.65353        44.62597         0.08588
C         24.46690        43.94867         0.20708
C         25.67066        46.07728        -0.21132
C         24.39994        46.79810        -0.52688
C         25.57918        48.78633        -1.30251
C         24.39393        48.12782        -1.18592
C         25.63748        50.22978        -1.62664
C         24.32840        50.97793        -1.65251
C         25.62494        53.10312        -1.25470
C         24.35362        52.44337        -1.45989
C         25.66793        54.48076        -0.98562
C         24.46863        55.29626        -1.18169
C         25.72184        57.28074        -0.00949
C         24.38434        56.60166        -0.47611
C         25.65557        58.71191         0.21470
C         24.42189        59.38247         0.39229
C         24.37858        60.72864         0.85916
C         26.78435         8.22869        -0.66254
C         28.00732        10.24071         0.05089
C         26.83369         9.57114        -0.13131
C         27.99107        11.67438         0.52912
C         26.84421        12.38064        -0.23672
C         28.07331        14.53000         0.03431
C         26.82828        13.86478        -0.00632
C         28.10550        15.93685         0.00864
C         26.88613        16.64902         0.10321
C         28.20825        18.83598         0.30691
C         26.89992        18.11967         0.27104
C         28.21726        20.28740        -0.09817
C         26.92914        20.97108         0.31036
C         28.13580        23.13445         0.48837
C         26.96012        22.31543         0.98749
C         28.20996        24.52329         0.97733
C         27.05867        25.01731         1.58010
C         28.17620        27.45988         0.56790
C         26.92084        26.83302        -0.00294
C         28.18965        28.83680         0.53488
C         26.91164        29.53752         0.16508
C         28.15325        31.77091         0.35119
C         26.89864        31.02277         0.04375
C         28.22526        33.10706        -0.33140
C         26.92208        33.86575        -0.24602
C         28.23067        36.02512        -0.18024
C         27.08857        35.20441        -0.54738
C         28.16475        37.40345         0.06279
C         26.93453        38.13384         0.60930
C         28.13070        40.34909        -0.05973
C         26.88992        39.60866         0.34365
C         28.19308        41.73574         0.60867
C         26.90492        42.49373         0.41973
C         28.21609        44.62755        -0.07084
C         26.96314        43.99546         0.50040
C         28.21706        45.97754        -0.47753
C         26.92540        46.64385        -0.77659
C         28.13111        48.82168        -1.20355
C         26.87410        48.05943        -1.26278
C         28.10394        50.18360        -1.07065
C         26.87806        50.94713        -1.24835
C         28.12929        53.04188        -0.92643
C         26.86262        52.33091        -1.13813
C         28.11410        54.45181        -0.76538
C         26.90514        55.17452        -0.66097
C         26.92656        56.54577        -0.34514
C         29.29295        12.41597         0.33022
C         30.59442        14.49733         0.10079
C         29.32718        13.76565         0.13791
C         30.66615        15.84975        -0.01363
C         29.41585        16.62922        -0.15011
C         30.75900        18.79893         0.46956
C         29.48188        18.11318        -0.01147
C         30.78215        20.28554         0.15627
C         29.47755        20.99129         0.46942
C         30.64784        23.25058        -0.15898
C         29.38877        22.44974         0.07388
C         30.65402        24.59971         0.55492
C         29.45855        25.23522         0.86340
C         30.71617        27.47025         0.90985
C         29.38256        26.71003         1.00505
C         30.65228        28.90699         0.62841
C         29.44499        29.56923         0.64366
C         30.66927        31.79796         0.33165
C         29.42667        31.05409         0.62639
C         30.67777        33.16688         0.15975
C         29.44277        33.91373         0.04727
C         30.64579        35.99893         0.65289
C         29.45383        35.28663         0.06464
C         30.65305        37.47116         0.34146
C         29.41778        38.14697         0.21998
C         30.62458        40.29098         0.26689
C         29.41680        39.57134         0.18647
C         30.60428        41.74283         0.14351
C         29.43765        42.46553         0.15836
C         30.62830        44.56645        -0.46320
C         29.42930        43.90185        -0.09587
C         30.63607        45.94322        -0.74515
C         29.41121        46.64686        -0.79512
C         30.66604        48.79967        -1.09835
C         29.40454        48.03168        -1.41741
C         30.62823        50.14867        -0.87107
C         29.34654        50.88132        -0.56623
C         29.33473        52.34952        -0.85049
C         31.99922        16.56993        -0.19864
C         33.16952        18.79008         0.05067
C         32.01263        18.07832         0.06092
C         33.25314        20.25322         0.15163
C         31.97625        21.00523         0.02166
C         33.03696        23.26862        -0.26183
C         31.92331        22.44802        -0.03308
C         33.12290        24.62555         0.12164
C         31.89979        25.33748         0.45795
C         33.13998        27.41153         0.03354
C         31.93587        26.71280         0.60736
C         33.20025        28.88693         0.32579
C         31.95804        29.65838         0.71225
C         33.16966        31.75459        -0.22986
C         31.88032        31.01952         0.06855
C         33.14798        33.20493        -0.02414
C         31.93994        33.89365         0.11711
C         33.15857        36.03675         0.39533
C         31.94398        35.30169         0.35354
C         33.13575        37.47149         0.43560
C         31.88216        38.17902         0.38754
C         33.13362        40.29894         0.43621
C         31.87784        39.60280         0.35564
C         33.16723        41.77760         0.32039
C         31.88512        42.48909         0.09330
C         33.17222        44.52687        -0.64839
C         31.87385        43.75386        -0.72773
C         33.12614        45.92100        -0.86457
C         31.90696        46.65013        -0.95877
C         31.89103        48.04447        -1.08902
C         34.49557        20.79517         0.45553
C         35.66364        23.09077         0.90149
C         34.84889        22.19294         0.25877
C         35.63737        24.53560         0.61108
C         34.41165        25.25936         0.29556
C         35.63693        27.40229         0.44073
C         34.43175        26.67565         0.31287
C         35.65586        28.83344         0.32033
C         34.39162        29.54390         0.20923
C         35.68038        31.71065         0.26899
C         34.48311        30.97806        -0.25529
C         35.65981        33.19301         0.03295
C         34.37915        33.85278         0.55068
C         35.62065        36.07069         0.34668
C         34.40981        35.35521         0.37060
C         35.60768        37.47768         0.46129
C         34.36241        38.18138         0.49775
C         35.60516        40.40355         0.78049
C         34.33681        39.61448         0.53328
C         35.60484        41.72159         0.02637
C         34.43728        42.43312        -0.10896
C         34.37249        43.81712        -0.50481
C         36.80686        25.27803         0.81368
C         38.06795        27.44156         0.77492
C         36.86473        26.69666         0.67323
C         38.08791        28.84884         0.67130
C         36.85366        29.55642         0.45819
C         38.11555        31.74947         0.57530
C         36.85485        31.01899         0.44264
C         38.14761        33.14034         0.53059
C         36.86725        33.92568         0.62315
C         38.15380        36.07876         0.63487
C         36.94498        35.36310         0.07118
C         38.10442        37.45476         0.73883
C         36.86867        38.20987         0.58205
C         36.86129        39.58298         0.64324
C         39.30563        29.60141         0.78424
C         40.56271        31.74910         0.85377
C         39.33848        30.99601         0.72609
C         40.57619        33.11907         0.85715
C         39.36275        33.88663         0.71669
C         39.33721        35.29047         0.81970
O         18.61029        49.91738         1.00977
O         22.40613        18.81590        -1.64769
O         24.45842        22.13459        -1.02168
O          9.81429        34.29441        -1.20132
O         22.60536        45.85757        -1.89160
O         22.57694        57.46142        -1.97131
O         24.15669        31.50912         2.14841
O         12.61982        24.80825         1.86406
O         25.00661        46.89652         0.83180
O         25.05993        50.56716        -2.93953
O         20.97593         9.56402         1.08672
O         15.15539        31.55448         2.83632
O         21.23961        35.71559         2.51206
O         28.61341        31.67884         1.71367
O         16.82070        38.46567        -1.26260
O         32.51767        42.54622         1.41429
O         12.43094        28.98337         2.69969
O         26.93394        26.06659        -0.95128
O         22.28004         8.39890        -2.21957
O         20.93462        12.20510         1.31996
O         19.50200        50.22800        -2.40929
O         32.31578        31.21018        -1.31301
O         26.84700        46.92546        -2.22745
O         23.98593        24.87673         2.62970
O         23.87160        55.21668        -2.48925
O         28.38151        22.81970        -0.93482
O         26.96860        30.19580        -1.16386
O         26.04200        35.85861        -1.19801
O         11.29553        31.71984         2.69840
O         27.58054        18.53664         1.56588
O         24.79143        56.51339         0.88403
O         18.79900        15.98196         0.86978
O         34.17074        22.72091        -0.85927
O         15.08004        46.40253         1.69466
O         30.04796        27.19538         2.20564
O         18.25247        28.78821         3.11951
H         19.03789        28.23588         3.38496
O          8.99085        30.75469         2.70684
H          9.81951        30.83753         3.24578
O         29.44031        47.78855        -2.86261
H         28.58562        47.34861        -3.09006
O         16.79637        12.49467        -2.77683
H         15.93607        12.88487        -3.03748
O         27.08499        44.26064         1.96056
H         26.21769        44.04786         2.36961
O         18.54792        40.29449        -1.89728
H         18.11771        39.47916        -2.24921
O         19.38604        30.87861        -0.70164
H         20.23106        30.49890        -1.02477
O         27.14927        12.17780        -1.65476
H         26.53253        12.72939        -2.18054
O         28.36235        41.54283         2.05296
H         28.39788        42.44306         2.45029
O         37.17972        35.40924        -1.35385
H         36.56456        34.76764        -1.78557
O         28.30292        20.26728        -1.53869
H         28.18459        21.19208        -1.85944
O         32.12279        29.96199         2.13901
H         31.86447        29.16833         2.65539
O         16.83173        17.62260         1.68124
H         17.57437        16.98425         1.82571
O         21.38697        24.90942         2.85148
H         22.10144        25.09961         3.49847
O         28.37889        32.77107        -1.74984
H         28.39685        33.60393        -2.26629
O         25.97971        40.36490         2.42982
H         26.87291        40.79056         2.56189
O         27.71469        11.70916         1.94907
H         26.91219        11.15387         2.11959
O         14.53998        50.83717        -0.62728
H         14.73998        50.72736        -1.57931
O         24.70375        17.77625        -1.89238
H         23.95105        18.15548        -2.40801
O         30.47494        35.91256         2.11777
H         29.63021        36.36267         2.33988
O         20.60168        27.42819         3.21166
H         21.26341        28.08616         3.53816
O         15.50178        24.56407         2.41362
H         16.27523        24.15336         2.85388
O         31.76194        43.29386        -2.11427
H         31.68436        44.08571        -2.68761
O         33.01799        15.93280         0.58042
H         32.74686        15.95586         1.52077
O         23.82532        36.02117         2.67385
H         23.04538        36.10083         3.26947
O         25.45436        10.09353         1.75643
H         25.42013         9.13558         1.96495
O         32.94325        27.36175        -1.43502
H         33.78358        27.64772        -1.85319
O         17.05142        27.03943        -0.89649
H         17.92151        26.71853        -1.22051
O          8.42626        27.67275        -1.81453
H          9.22403        28.15929        -2.10721
O         23.90934        33.93010        -1.43675
H         24.57850        34.46927        -1.91733
O         27.15835        37.94601         2.06832
H         26.60889        38.63805         2.52398
O         22.26513        29.68010         2.94642
H         23.02671        30.30596         3.07117
O         29.49690        17.54405        -1.33548
O         27.05408        22.09030         2.42017
H         27.87939        21.56161         2.57862
O         26.65617         5.42744        -1.05473
H         26.34838         5.17157        -0.16152
O         28.06980        40.62803        -1.49872
H         27.97419        39.77345        -1.96899
O         18.27525        14.91168        -2.58581
H         18.03765        14.05794        -3.02176
O         10.59344        37.54129         1.94449
H         10.44273        38.48545         2.16505
O         36.65394        34.06240         2.05328
H         37.46671        34.45265         2.43841
O         24.23257        17.16664         1.67281
H         24.27420        16.35472         2.21963
O         34.24842        33.56554         1.97363
H         33.51447        34.11125         2.32777
O         22.23957        39.35439        -1.31597
H         21.36162        39.23331        -1.73791
O         29.23255        50.80179         0.91831
H         28.47675        51.36880         1.18383
O         19.07813        52.69439        -2.84792
H         19.61446        52.01146        -3.31858
O         30.66336        23.64431        -1.56939
H         29.72551        23.81047        -1.82761
O         20.41421         6.97790         0.68832
H         20.40398         7.80968         1.22510
O         14.76900        25.42164        -1.08052
H         15.55524        25.99750        -1.26866
O         17.00122        17.39382        -1.99333
H         17.37316        16.67919        -2.56372
O         13.51364        35.81300        -1.31856
H         14.34026        36.27889        -1.56986
O         13.35684        41.71965        -1.95187
H         14.16274        41.22056        -2.20560
O         20.83765        20.02512         2.15795
H         19.97736        19.65270         2.44945
O         29.39335        20.97303         1.93123
H         29.59987        20.04585         2.22562
O         30.69742        18.65694         1.94576
H         31.54697        18.99234         2.30581
O         34.79346        30.80561        -1.70163
H         33.92394        30.62753        -2.13792
O         20.59923        16.24211        -2.24010
H         21.48728        16.12026        -2.63510
O         21.80357        51.01713        -3.27592
H         22.00973        50.09922        -3.58444
O         23.07035        48.57517        -3.12855
H         23.87540        49.04130        -3.46754
O          6.38560        30.86703         2.06178
H          7.16694        30.66534         2.63304
O         23.06476        45.17012         1.67038
H         23.80163        45.81723         1.80699
O         21.30137        24.98774        -0.76186
H         20.81227        24.43812        -1.40964
O         27.07316        26.04327         2.46441
H         26.18163        26.15776         2.85400
O         35.63259        33.34252        -1.41767
H         35.42204        32.45753        -1.82044
O         35.57340        40.79094         2.20459
H         34.75679        41.31847         2.34623
O         15.89513        37.84319         2.20937
H         15.16579        37.40122         2.69311
H          4.86996        31.21481        -0.21676
H          5.05376        33.56890        -0.88926
H          7.51697        27.05009        -0.07810
H          6.26795        29.09306        -0.21253
H          6.22149        35.70765        -0.67954
H          7.41476        37.91654        -0.47305
H          9.95600        22.77248        -0.44721
H          8.75621        24.98726        -0.52802
H          8.65599        40.04264        -0.52936
H          9.82982        42.21540        -0.17518
H         12.37033        18.45017        -0.45628
H         11.16014        20.60364        -0.41166
H         11.07992        44.35761         0.13498
H         12.28475        46.48044        -0.00557
H         14.79297        14.09197        -0.55171
H         13.55190        16.25951        -0.22980
H         13.61370        48.72522        -0.13575
H         15.46551        50.67863         1.19643
H         17.22654         9.88804        -1.40193
H         15.97145        11.99756        -0.91094
H         15.98939        53.00335        -0.37826
H         17.34984        55.01918        -0.00115
H         19.70639         5.54408        -1.67840
H         18.44475         7.77374        -1.50447
H         18.52270        57.12056        -0.00505
H         19.77565        59.23637         0.30973
H         23.15053         2.42408        -2.63922
H         20.97186         3.58962        -2.35544
H         23.15505        62.42439         1.38643
H         21.00308        61.28581         0.86202
H         25.29796         3.64182        -2.24354
H         25.99639         6.42776        -2.71852
H         26.59295        59.28468         0.25569
H         25.31962        61.23581         1.11499
H         27.73345         7.71450        -0.87658
H         28.96373         9.75125        -0.19382
H         29.06657        54.97677        -0.60037
H         27.88957        57.07492        -0.32381
H         30.23420        11.86099         0.46922
H         31.52408        13.91177         0.17347
H         31.56936        50.68915        -0.67900
H         30.26808        52.91761        -0.71495
H         32.29742        16.42758        -1.27474
H         34.11765        18.25410        -0.11691
H         34.07343        46.48100        -0.91348
H         32.84697        48.59154        -1.08025
H         35.29163        20.09520         0.76132
H         36.35040        22.74918         1.69100
H         36.56889        42.18547        -0.23401
H         35.32382        44.36140        -0.61745
H         37.73445        24.74290         1.06892
H         39.01427        26.90547         0.94481
H         39.01158        38.01639         1.01435
H         37.81560        40.11872         0.76818
H         40.24787        29.05053         0.92992
H         41.50635        31.19452         0.96701
H         41.52876        33.65664         0.97644
H         40.27888        35.81296         1.05421
