         404
 CSIRO Nanostructure Databank - Neutral Graphene Oxide Data Set
C          1.86552         2.00363         1.88656
C          1.82099         3.40119         1.84664
C          3.01782         1.32024         1.51747
C          2.93599         4.15277         1.42831
C          1.78360         6.33662         1.78981
C          1.78545         7.71859         1.79742
C          2.92545         5.60787         1.38988
C          2.92010         8.45475         1.38773
C          1.87048        10.61425         2.03827
C          1.92195        11.99734         2.16792
C          2.93339         9.90280         1.45059
C          2.99643        12.73032         1.65396
C          1.81289        14.92475         2.17203
C          1.68957        16.25657         1.96984
C          3.12017        14.20942         1.93469
C          2.75988        17.01939         1.36962
C          2.69179        18.45228         1.29860
C          4.16152         2.03423         1.09146
C          4.11927         3.46267         1.04209
C          5.34913         1.34645         0.70685
C          5.27172         4.18998         0.60140
C          4.07170         6.32570         0.94981
C          4.06728         7.75586         0.92489
C          5.25225         5.61718         0.53815
C          5.21247         8.48623         0.44536
C          4.05491        10.62287         0.95068
C          4.05901        12.05080         1.00635
C          5.19293         9.91265         0.43482
C          5.13169        12.79155         0.38632
C          4.00320        14.92410         0.93490
C          3.85717        16.32900         0.82066
C          5.03496        14.20711         0.28156
C          4.85046        17.12768         0.07059
C          3.73982        19.21308         0.84745
C          4.95156        18.58309         0.37605
C          6.48352         2.03419         0.29209
C          6.44946         3.48191         0.24148
C          7.66463         1.31728        -0.11668
C          7.57987         4.20506        -0.20208
C          6.38183         6.33017         0.05096
C          6.36769         7.78280        -0.02330
C          7.53110         5.60345        -0.35104
C          7.48499         8.50761        -0.50776
C          6.31913        10.64558        -0.04884
C          6.27426        12.07814        -0.12574
C          7.46870         9.94270        -0.53017
C          7.40390        12.77411        -0.62859
C          6.00866        14.91932        -0.58363
C          5.96848        16.42213        -0.60883
C          7.28714        14.20596        -0.97978
C          7.23117        17.19957        -0.87973
C          6.12666        19.24060         0.16856
C          7.40041        18.45982        -0.03201
C          8.81343         1.97128        -0.51732
C          8.82639         3.45208        -0.45781
C         10.01064         1.28793        -0.91090
C          9.97501         4.15607        -1.06591
C          8.62230         6.33430        -1.04720
C          8.67574         7.81528        -0.97330
C          9.84775         5.58444        -1.48015
C          9.78665         8.48568        -1.43207
C          8.59701        10.66972        -0.99969
C          8.58864        12.07840        -0.97859
C          9.73395         9.97223        -1.71099
C          9.79695        12.83171        -1.30565
C          8.53243        14.97341        -1.25874
C          8.50077        16.46510        -1.25740
C          9.72847        14.28943        -1.35021
C          9.75266        17.22290        -1.09867
C          8.57710        19.28057        -0.43715
C          9.76435        18.62189        -0.79305
C         11.13484         1.93526        -1.42624
C         11.00100         3.38889        -1.84817
C         12.36127         1.25683        -1.66321
C         12.30066         4.16120        -1.86472
C         11.11910         6.30878        -1.67990
C         11.01791         7.76645        -1.84273
C         12.33451         5.62357        -1.76147
C         12.32591         8.55220        -1.87116
C         11.06134        10.70505        -1.55279
C         11.00044        12.15754        -1.51309
C         12.25922        10.02817        -1.66667
C         12.25411        12.92838        -1.69138
C         10.98590        15.04513        -1.60713
C         10.99740        16.57023        -1.45388
C         12.27704        14.37111        -1.40770
C         12.27601        17.23380        -1.19117
C         11.01167        19.32303        -0.86603
C         12.25167        18.65781        -0.99571
C         13.52697         1.96633        -2.02118
C         13.38609         3.39705        -2.21956
C         14.84213         1.39768        -2.02127
C         15.05826         4.37326        -1.43256
C         13.57338         6.37585        -1.49632
C         13.55294         7.80981        -1.47637
C         14.75120         5.71921        -1.01195
C         14.69637         8.53454        -1.07563
C         13.55599        10.72846        -1.73001
C         13.58322        12.21795        -1.68644
C         14.80716         9.98627        -1.33490
C         14.76757        12.92253        -1.16926
C         13.47305        15.05538        -1.25623
C         13.47646        16.50906        -1.14956
C         14.72733        14.33259        -1.05331
C         14.70333        17.20721        -0.94686
C         13.48279        19.34939        -0.93226
C         14.70871        18.64534        -0.91423
C         16.01330         2.08141        -1.60080
C         15.91868         3.39149        -0.95726
C         17.28738         1.46226        -1.52547
C         16.92644         3.72001         0.00791
C         15.79194         6.47400        -0.38516
C         15.83974         7.87745        -0.55558
C         16.88384         5.87517         0.29992
C         17.03587         8.56040        -0.17642
C         15.90125        10.76195        -0.72541
C         15.90891        12.17224        -0.72052
C         16.95788        10.02157        -0.02940
C         17.09523        12.88963        -0.30543
C         15.90096        15.04129        -0.68237
C         15.91527        16.48707        -0.70274
C         17.10513        14.31885        -0.36688
C         17.10363        17.19914        -0.47614
C         15.94624        19.32890        -0.83590
C         17.15077        18.62141        -0.63941
C         18.40790         2.08295        -0.91510
C         18.23029         3.29919        -0.13644
C         19.66912         1.44612        -0.89140
C         19.35418         4.04861         0.48388
C         18.15994         6.43637         0.33723
C         18.21408         7.85504         0.13826
C         19.36561         5.62782         0.67273
C         19.45815         8.55756         0.41319
C         18.22420        10.75199         0.39017
C         18.28050        12.20419         0.09911
C         19.45830         9.94127         0.49235
C         19.48433        12.90128         0.25841
C         18.30807        15.01956        -0.11010
C         18.30241        16.50685         0.09833
C         19.52105        14.32141         0.10112
C         19.61243        17.17285        -0.22485
C         18.40638        19.28659        -0.62747
C         19.62984        18.57687        -0.49577
C         20.78261         2.01675        -0.25168
C         20.68573         3.34948         0.40673
C         22.01788         1.35244        -0.24945
C         21.95542         4.15876         0.50082
C         20.67731         6.35517         0.61006
C         20.69603         7.78393         0.55839
C         21.91553         5.64890         0.51963
C         21.93940         8.48436         0.61124
C         20.70509        10.65707         0.78061
C         20.71073        12.18800         0.68958
C         21.97663         9.92913         0.67179
C         22.00870        12.82365         0.45110
C         20.76774        15.03261         0.12674
C         20.81459        16.44598        -0.07298
C         22.02256        14.26906         0.11912
C         22.07570        17.15976        -0.07000
C         20.87289        19.23401        -0.65544
C         22.09475        18.55997        -0.42959
C         23.23774         2.00591         0.06107
C         23.23167         3.46072         0.19822
C         24.45315         1.30679         0.00208
C         24.40089         4.15972         0.21115
C         23.13520         6.34495         0.39470
C         23.17956         7.76288         0.51946
C         24.39135         5.63788        -0.07014
C         24.43011         8.45619         0.53989
C         23.17366        10.64751         0.67502
C         23.17539        12.08043         0.51903
C         24.44979         9.89453         0.99163
C         24.47184        12.80469         0.35576
C         23.32058        15.04864         0.34932
C         23.26693        16.53725         0.35872
C         24.48470        14.23255         0.77592
C         24.45559        17.31954         0.43585
C         23.33492        19.21791        -0.61166
C         24.54038        18.59292        -0.22339
C         25.70007         1.96634         0.15664
C         25.66915         3.42834         0.36976
C         26.92862         1.31085         0.15313
C         26.96424         4.19983         0.24963
C         25.69117         6.35477         0.22337
C         25.67531         7.77271         0.38300
C         26.91456         5.67740         0.10740
C         26.92277         8.48566         0.39853
C         25.72525        10.59740         0.61782
C         25.74762        12.06227         0.47929
C         26.90686         9.92922         0.47489
C         27.00383        12.74871         0.88031
C         25.56609        14.70047         1.45049
C         25.63991        16.86374         1.08434
C         26.91967        14.10695         1.44364
C         26.91794        17.24205         0.73828
C         25.83271        19.14214        -0.42719
C         27.01273        18.46179        -0.03554
C         28.17822         2.02236         0.11003
C         28.17530         3.43346        -0.01926
C         29.41782         1.33048         0.05742
C         29.41622         4.13783        -0.30129
C         28.13880         6.38845         0.08719
C         28.15259         7.79873         0.22692
C         29.40362         5.69943        -0.19271
C         29.42561         8.48590         0.25924
C         28.15842        10.70651         0.22924
C         28.20139        12.13285         0.65960
C         29.44938         9.96216         0.11688
C         29.46656        12.85107         0.82706
C         28.18291        14.98398         1.40191
C         28.13844        16.56737         1.38753
C         29.46061        14.26753         1.05668
C         29.41941        17.11797         0.79794
C         28.28308        19.03208        -0.25504
C         29.47119        18.38437         0.18502
C         30.66090         2.01521         0.02450
C         30.68136         3.44861        -0.07945
C         31.89379         1.32539         0.05464
C         31.88317         4.18056         0.00374
C         30.65737         6.35049         0.18385
C         30.61016         7.76325         0.40810
C         31.87056         5.61951         0.17451
C         31.84448         8.45092         0.84719
C         30.77233        10.72020         0.19757
C         30.68827        12.16240         0.67770
C         31.85269         9.94926         0.94020
C         31.94035        12.83967         0.85571
C         30.70208        14.95815         1.15323
C         30.66836        16.44919         1.21370
C         31.92634        14.26042         1.07815
C         31.95660        17.22311         1.06938
C         30.72510        19.04597        -0.05794
C         31.94184        18.51714         0.34641
C         33.12385         2.02358         0.02343
C         33.12554         3.46645         0.03675
C         34.35576         1.33067         0.02049
C         34.35179         4.17182         0.06943
C         33.12614         6.29398         0.33832
C         33.15593         7.71407         0.77474
C         34.32004         5.60207         0.18887
C         34.41384         8.50547         0.68955
C         33.17169        10.66283         1.04175
C         33.16973        12.12225         0.82889
C         34.43101         9.89929         0.85495
C         34.48273        12.78838         1.15472
C         33.23288        14.96081         1.20825
C         33.25349        16.48021         1.13035
C         34.48612        14.25974         0.86798
C         34.47213        17.12446         0.62317
C         33.17288        19.15692         0.05808
C         34.42198        18.52654         0.23194
C         35.58862         2.01757         0.06528
C         35.59535         3.45414         0.10162
C         36.82651         1.31517         0.06901
C         36.83814         4.13043         0.24293
C         35.57233         6.36979         0.06911
C         35.61366         7.80584         0.38106
C         36.88182         5.60212         0.10239
C         36.84695         8.47925         0.30232
C         35.65326        10.62335         0.61841
C         35.68524        12.04740         0.62730
C         36.86281         9.90311         0.37367
C         36.85300        12.74548         0.27025
C         35.66666        14.94850         0.64675
C         35.64695        16.39827         0.54145
C         36.89329        14.21404         0.29505
C         36.91259        17.14022         0.39362
C         35.61863        19.20417        -0.08264
C         36.87368        18.56021        -0.01227
C         38.04068         1.99023         0.21477
C         38.03186         3.41191         0.36953
C         39.31542         1.30307         0.17402
C         39.30054         4.10304         0.67256
C         38.10065         6.36430         0.37386
C         38.09979         7.74744         0.26009
C         39.34006         5.64316         0.68556
C         39.35787         8.46685         0.20038
C         38.08136        10.60467         0.13365
C         38.04160        12.00276        -0.01007
C         39.33792         9.87701         0.01813
C         39.23436        12.67950        -0.54354
C         38.05093        14.89465        -0.04048
C         38.18513        16.35427         0.14806
C         39.22295        14.20830        -0.61522
C         39.34490        17.07352        -0.41648
C         38.06453        19.20230        -0.34948
C         39.29409        18.49175        -0.53304
C         40.50465         1.97565         0.23001
C         40.56418         3.39822         0.43979
C         41.74980         4.12347         0.44517
C         40.62197         6.31652         0.44658
C         40.59445         7.75183         0.21130
C         41.77734         5.54103         0.44462
C         41.78971         8.48035         0.01683
C         40.55666        10.57346        -0.21606
C         40.53775        11.99733        -0.50642
C         41.76925         9.84691        -0.20188
C         41.67859        12.73729        -0.75820
C         40.51866        14.90763        -0.72492
C         40.52267        16.36973        -0.75991
C         41.66368        14.15384        -0.88199
C         41.65863        17.09939        -1.16712
C         40.45611        19.18869        -0.94961
C         41.62202        18.49502        -1.24721
O         28.72538        10.41718        -1.09759
O         32.42369         7.84773         2.04727
O          4.82738        16.89880        -1.39486
O         11.64836         8.18327        -3.11757
O         20.60406        11.51167         1.98410
O         25.47270        15.92492         2.11457
O         13.00375        12.70731        -2.94571
O          7.62398        17.18506        -2.24974
O         14.51776         4.06884        -2.69935
O         39.26277         4.86459         1.92958
O         29.40884         5.01065        -1.48397
O         38.93146        13.38658        -1.79801
O          8.79074         5.85584        -2.44774
O         27.68533        14.39605         2.65591
O         26.39561         3.82924         1.58385
O         22.90995        14.60081        -1.00045
O         37.83813        16.83522         1.49506
O         16.61308         4.67675         0.96914
O         25.23435        12.49947        -0.86480
O         33.41136        15.79487         2.40901
O          9.98565         3.95555         0.36824
O         14.49490        10.25861        -2.75476
O          6.17138        14.38727        -1.93319
O         36.27305         6.03451        -1.17952
O         32.28465        10.39503         2.23572
O         17.18561        10.43444         1.37499
O         31.26904        17.16659         2.35495
O         10.93414        15.89512        -2.77751
O         19.15466         4.68507         1.76586
O         21.38840         3.47246         1.67756
O         24.48356         9.85084         2.47826
H         23.69273         9.34974         2.77406
O         18.15467        16.68211         1.57729
H         18.89180        16.19083         2.00034
O         28.14439        16.97074         2.77654
H         27.76647        16.22656         3.30133
O         10.50593         3.36857        -3.22050
H         11.20037         2.98198        -3.79384
O          9.43028        10.06959        -3.14272
H         10.12174         9.54647        -3.61299
O          7.71100        17.87578         1.31060
H          7.91657        18.62411         1.91133
O         31.28500        10.77940        -1.16818
H         30.50278        10.91957        -1.75265
O         24.29535         5.69722        -1.55530
H         24.38399         6.63959        -1.81605
O          3.84700        14.28627         3.22417
H          3.89900        15.23499         3.46872
O         34.59366        12.68408         2.62257
H         33.93489        13.29424         3.02059
H          0.97870         1.44451         2.21612
H          0.89254         3.90267         2.14990
H          3.04918         0.22199         1.55322
H          0.87649         5.81137         2.11544
H          0.87668         8.23842         2.12629
H          1.00220        10.08474         2.44993
H          1.10029        12.50036         2.69335
H          0.98621        14.38250         2.65063
H          0.76072        16.77993         2.24177
H          1.78744        18.94474         1.68542
H          5.36120         0.24675         0.74060
H          3.69320        20.31064         0.89507
H          7.63035         0.21724        -0.11958
H          6.19316        20.32735         0.33358
H         10.04490         0.19520        -0.77421
H          8.59936        20.35206        -0.19236
H         12.43830         0.19206        -1.39508
H         11.00717        20.41331        -0.72105
H         14.92640         0.30812        -2.16450
H         13.48631        20.44565        -0.84761
H         17.42666         0.46848        -1.97650
H         15.96277        20.42689        -0.89348
H         19.78809         0.47522        -1.39425
H         18.43593        20.37334        -0.79485
H         22.05693         0.31178        -0.60562
H         20.88813        20.30131        -0.92085
H         24.43872         0.21981        -0.16689
H         23.35388        20.23038        -1.04003
H         26.95414         0.21243         0.10038
H         25.92753        20.11669        -0.92765
H         29.41753         0.23151         0.09663
H         28.36064        20.00737        -0.75634
H         31.89830         0.22637         0.09990
H         30.70775        20.00952        -0.58831
H         34.35276         0.23057         0.00746
H         33.14873        20.16980        -0.37093
H         36.82033         0.22038        -0.03833
H         35.57127        20.25671        -0.39886
H         39.30900         0.21126         0.04288
H         38.04537        20.27793        -0.58083
H         41.45191         1.42396         0.13693
H         42.70371         3.58511         0.34423
H         42.75939         6.02389         0.34380
H         42.75727         7.96119         0.02858
H         42.72234        10.36633        -0.36681
H         42.65888        12.24343        -0.79702
H         42.63222        14.65392        -1.01957
H         42.58662        16.57535        -1.43144
H         40.42333        20.28392        -1.03662
H         42.52026        19.04271        -1.56449
