         280
 CSIRO Nanostructure Databank - Neutral Graphene Oxide Data Set
C         30.49640        31.80213        -0.90198
C         30.52600        33.02965        -0.77949
C         30.58780        36.28469        -1.29261
C         30.61052        37.50662        -1.44762
C         30.46611        40.64939        -0.96596
C         30.42203        41.86962        -0.78733
C         32.87362        28.93833        -0.82859
C         31.78486        29.50804        -0.84085
C         32.88200        31.67200        -0.60029
C         31.52366        30.88154        -0.30557
C         32.91994        33.17225        -0.34066
C         31.60868        33.96508        -0.49201
C         32.97947        36.11406        -1.06109
C         31.64626        35.42104        -0.75956
C         33.00885        37.64474        -1.15608
C         31.68093        38.38117        -0.84026
C         32.93988        40.63871        -0.89104
C         31.67000        39.83889        -1.20089
C         32.83445        42.06926        -0.40631
C         31.43775        42.84238        -0.41341
C         32.46065        44.40936         0.92989
C         31.33190        43.84856         0.65098
C         35.63302        27.33116        -1.16589
C         35.41829        28.77837        -1.15742
C         34.24426        29.39116        -0.43676
C         35.48936        31.66962        -0.49447
C         34.18839        30.93103        -0.69527
C         35.48675        33.12865        -0.69439
C         34.23236        33.89310        -0.49598
C         35.64625        36.07871        -1.02597
C         34.26474        35.34806        -0.94094
C         35.62203        37.63662        -0.80206
C         34.30923        38.39893        -1.02638
C         35.43784        40.56164        -0.05399
C         34.27597        39.90374        -0.74069
C         35.14883        41.78894         0.79070
C         33.84806        42.52069         0.62635
C         34.96908        44.75431         1.25340
C         33.75085        43.95011         1.09496
C         35.17882        46.06279         0.59329
C         38.07782        27.18208        -1.24321
C         36.69074        26.71175        -1.24691
C         38.08258        28.71874        -1.16861
C         36.77390        29.50023        -1.14156
C         38.05915        31.73231        -0.93132
C         36.79984        30.92178        -0.60564
C         38.02541        33.16736        -0.35681
C         36.69140        33.85339        -0.26684
C         38.01190        36.03212         0.22337
C         36.70375        35.35849        -0.17639
C         38.01263        37.52281         0.39366
C         36.80869        38.32235        -0.14504
C         37.78150        40.42539         1.07302
C         36.71774        39.79254         0.23530
C         37.60927        41.82562         1.62869
C         36.30761        42.53308         1.43303
C         37.55960        44.66442         0.66588
C         36.30925        44.05298         1.35019
C         37.60620        46.22694         0.57007
C         36.22209        46.67578         0.36253
C         40.81138        24.66335        -1.44874
C         39.72397        25.24421        -1.48193
C         40.39619        27.11884        -0.11492
C         39.13198        26.30861        -0.60864
C         40.39723        28.61393         0.04177
C         39.33111        29.42978        -0.67125
C         40.42502        31.53989         0.31782
C         39.34129        30.92962        -0.54369
C         40.38504        32.99942         0.65514
C         39.19754        33.84003         0.28086
C         40.26819        35.87368         1.47758
C         38.94952        35.13315         1.08737
C         40.22733        37.35575         1.76384
C         38.82721        38.06499         1.58804
C         40.18751        40.36547         1.84920
C         38.91061        39.59946         1.64781
C         40.18487        41.87805         1.70237
C         38.88993        42.63648         1.67978
C         40.12475        44.71897         0.67533
C         38.86617        44.09132         1.21103
C         40.10831        46.01251        -0.07487
C         38.88691        46.88234         0.14334
C         40.08775        48.47593        -1.23036
C         39.09092        48.13677        -0.59595
C         43.26958        24.55364        -0.51477
C         42.11886        25.29849        -1.11812
C         42.84295        27.00460         0.79653
C         41.72883        26.36897         0.01456
C         42.78045        28.48784         1.13750
C         41.71690        29.29300         0.38910
C         42.84016        31.51943         1.16335
C         41.74521        30.79117         0.41763
C         42.95111        32.98654         0.83121
C         41.66526        33.77871         0.74747
C         42.86280        35.90486         1.61120
C         41.59725        35.23026         1.13900
C         42.87622        37.41769         1.73802
C         41.53405        38.14607         1.89111
C         42.76691        40.38328         1.37543
C         41.52733        39.64843         1.86545
C         42.73768        41.89502         1.45602
C         41.40465        42.48395         1.07453
C         42.59557        44.63244         0.27522
C         41.34050        43.85299         0.50807
C         42.42864        45.59063        -0.88688
C         41.17422        46.39170        -0.84886
C         42.56090        48.29507        -0.63455
C         41.39084        47.82456        -1.48782
C         44.13398        25.04950         0.20958
C         45.39476        27.02924         1.41850
C         44.18809        26.29721         0.97376
C         45.37747        28.56381         1.48388
C         44.01881        29.22816         1.62648
C         45.34239        31.52783         1.97419
C         44.03154        30.76323         1.68651
C         45.38145        33.01656         1.73514
C         44.21321        33.71904         1.09473
C         45.43522        35.91178         0.96066
C         44.16528        35.19172         1.43468
C         45.39293        37.45692         0.96542
C         44.15100        38.17796         1.46137
C         45.36924        40.46643         1.31318
C         44.07973        39.67448         1.22693
C         45.33769        41.97441         1.14813
C         43.99274        42.70718         1.29542
C         45.17504        44.72700         0.25134
C         43.90295        44.14793         0.80494
C         45.42072        46.24416         0.23201
C         44.49247        47.24117         0.82513
C         43.48862        47.86820         0.06908
C         47.79987        27.17625         1.62453
C         46.78648        26.58557         1.24327
C         48.02300        28.60953         1.75673
C         46.66284        29.33773         1.66666
C         47.94064        31.55324         1.63099
C         46.68487        30.77133         2.21357
C         47.93909        33.04623         1.47819
C         46.67854        33.81184         1.77973
C         48.02940        36.00881         1.35141
C         46.69369        35.30474         1.59657
C         48.02527        37.56370         1.32425
C         46.68422        38.21649         0.95480
C         47.82545        40.41266         0.39170
C         46.67970        39.72482         1.08550
C         47.58948        41.77736        -0.23289
C         46.40886        42.59666         0.23730
C         46.79635        44.23475        -1.77506
C         45.80809        43.68588        -0.68962
C         46.78160        45.69680        -1.72544
C         46.24837        46.50586        -0.96597
C         50.28062        28.80067         0.38741
C         49.17419        29.35369         1.17504
C         49.63536        31.43158        -0.36971
C         48.84749        30.76154         0.70622
C         49.84469        32.93245        -0.30043
C         48.92403        33.74453         0.55830
C         50.42343        35.85268         0.27370
C         49.22760        35.19128         0.92777
C         50.38155        37.36636         0.02950
C         49.20523        38.18224         0.51201
C         49.79956        40.01496        -1.26489
C         49.01688        39.59351        -0.05666
C         49.33558        41.19093        -2.09352
C         48.17358        42.02062        -1.61782
C         49.06026        43.74487        -3.09645
C         47.89575        43.37604        -2.27885
C         50.90285        29.30968        -0.54620
C         51.79581        31.44118        -1.66036
C         50.75362        30.44184        -1.48194
C         51.95890        32.64782        -1.47004
C         51.31029        33.43506        -0.35675
C         52.08656        35.67897        -1.51770
C         51.42293        34.94703        -0.42083
C         52.04445        36.89219        -1.68561
C         51.43646        38.07378        -1.05280
C         51.02491        39.50135        -3.19484
C         50.67665        39.01223        -1.95177
C         50.71391        40.48816        -3.96180
C         50.46595        41.72364        -3.09555
C         49.85126        42.96958        -3.64841
O         50.44051        38.08468         1.28316
O         46.63966        34.73037         2.91750
O         39.97838        27.76672         1.13049
O         35.92021        29.41207        -2.33224
O         43.58463        35.33720         2.74964
O         41.63115        38.93310         3.11804
O         36.26919        34.60978         0.97351
O         33.64179        33.59852         0.83779
O         45.09889        32.47188         3.05446
O         45.61310        41.37220         2.42829
O         32.45034        43.04975        -1.40936
O         35.26730        40.69087        -1.48755
O         31.42773        34.93487         0.57392
O         42.96024        31.22357         2.56789
O         48.76180        33.68025        -0.90495
O         41.69291        34.83463        -0.26007
O         39.67423        42.51777         2.89701
O         35.72750        44.71269         2.49966
O         36.25412        31.17860         0.70162
O         49.03244        29.16862         2.59524
O         50.24885        40.38511         0.07547
O         33.46861        31.33215        -1.88728
O         43.13430        45.13553         1.54416
O         41.21057        42.69413        -0.36826
O         40.06192        32.00107         1.66008
O         47.74059        40.34496         1.83559
O         46.07121        45.38229         1.18287
O         43.80121        37.80344         2.80453
O         38.38589        27.96279        -2.39322
O         38.75079        36.88446        -0.68004
O         45.98557        37.92545        -0.29856
O         51.71505        35.49733         0.87864
O         34.03651        41.52470         1.70343
O         38.98086        33.98949        -1.13644
O         39.32548        40.00267         2.97018
O         48.32964        30.91328        -0.67719
O         49.02596        35.52898         2.31104
O         33.58106        35.49131        -2.22964
O         41.88157        26.06332         1.41411
O         38.40986        46.93390         1.50725
O         39.91250        30.27802        -1.70528
O         47.73727        42.88327         0.71040
O         43.27057        45.69798        -1.76764
O         43.03718        28.70788         2.54936
O         42.25190        30.06592        -0.73220
O         43.88591        33.29504        -0.25139
O         46.62600        43.48832        -2.99304
O         47.99483        40.94820        -2.59922
O         33.71538        38.09126        -2.32688
O         43.25213        39.97136         0.05265
O         48.59449        32.39309         2.60660
O         46.08113        29.17927         0.34230
O         36.69373        38.22161        -1.58620
O         44.59255        26.32212         2.36772
O         39.68447        44.90888         2.05907
O         43.37821        42.50422         2.59748
O         40.19261        36.36610         2.83614
O         36.69767        41.99743         2.73401
O         37.86894        40.49086        -0.37848
O         32.45612        40.37711        -2.25553
O         41.75398        47.75224        -2.82351
H         42.53437        47.15671        -2.91186
O         51.86081        32.97767         0.86872
H         52.55804        33.59891         1.17108
O         37.51499        44.17748        -0.69600
H         36.74436        44.57049        -1.16102
O         38.02474        37.69285         2.72328
H         38.42079        38.11476         3.52046
O         50.04039        30.15762        -2.60962
H         49.19806        29.71684        -2.36867
O         31.35808        30.81125         1.08360
H         30.47565        30.44347         1.29609
O         52.40022        38.78805        -0.32064
H         51.92797        39.42394         0.26879
O         45.52631        35.48274        -0.41853
H         45.72324        36.25866        -0.99314
O         36.10555        35.87426        -2.36317
H         35.44671        36.26715        -2.97832
O         38.52894        25.72399         0.52343
H         39.20288        25.24767         1.05135
O         44.70757        43.06395        -1.36854
H         44.97418        42.91144        -2.30923
O         44.62959        47.48102         2.12346
H         43.95258        48.10552         2.45413
O         51.58574        42.04504        -2.32301
H         52.35081        42.22835        -2.90547
O         38.33158        34.74076         2.30171
H         38.37263        35.49682         2.93274
O         38.03097        31.86794        -2.35098
H         38.75572        32.47109        -2.62570
O         31.54234        38.31446         0.58145
H         30.65965        38.65845         0.83734
O         42.57392        26.05457        -2.21095
H         42.70955        25.47036        -2.98527
O         34.43479        29.14516         0.94480
H         33.66174        29.47359         1.45030
O         48.19348        37.96296         2.68535
H         49.04883        37.59389         3.00177
O         46.85720        30.63617         3.61444
H         46.72214        31.51659         4.03135
