         314
 CSIRO Nanostructure Databank - Neutral Graphene Oxide Data Set
C         30.44893        57.15594         0.28530
C         30.44388        58.55924         0.11148
C         29.26712        59.24094        -0.31287
C         30.47642        61.33579        -0.45036
C         29.29690        60.60813        -0.58463
C         32.85768        52.92181         0.96769
C         32.85660        54.33381         0.88818
C         31.65602        55.05194         0.72706
C         32.83982        57.21422         0.83109
C         31.63698        56.46887         0.59916
C         32.83628        58.62175         0.73621
C         31.64895        59.29864         0.31967
C         32.84205        61.45594         0.18656
C         31.67420        60.71356         0.01682
C         35.26896        48.55464         0.77208
C         34.84645        49.86851         0.48283
C         33.97005        50.75111         1.10673
C         35.30507        52.90344         0.76839
C         34.04611        52.18372         0.89565
C         35.32159        54.33555         0.99805
C         34.11333        55.02805         1.02978
C         35.38584        57.27420         1.23430
C         34.05714        56.49134         1.22779
C         35.28610        58.69115         0.83535
C         34.08408        59.35759         0.79682
C         35.30736        61.51622         0.24657
C         34.06908        60.87399         0.81307
C         37.76775        44.41190         0.42105
C         37.74948        45.81441         0.22411
C         36.57871        46.56768         0.42802
C         37.67353        48.72801        -0.10900
C         36.48780        47.98434         0.29114
C         37.78380        50.12728        -0.13083
C         36.60394        50.94413        -0.08147
C         37.80735        52.93833         0.51435
C         36.52616        52.20519         0.51358
C         37.87033        54.18776         1.31806
C         36.60657        55.04606         1.38360
C         37.85841        57.30708         1.13290
C         36.68227        56.54656         1.27453
C         37.79143        58.65479         0.49210
C         36.49472        59.37003         0.33896
C         37.71626        61.47410        -0.29231
C         36.48991        60.83519         0.09154
C         40.28422        40.11986         0.68527
C         40.25162        41.53187         0.39815
C         39.03206        42.28012         0.54215
C         40.22438        44.42519         0.16799
C         38.97036        43.66741         0.37065
C         40.15871        45.84561        -0.22341
C         38.96262        46.51158        -0.14536
C         40.20553        48.62307         0.16383
C         38.95423        47.98834        -0.46988
C         40.25844        50.12034        -0.03510
C         39.07492        50.81319        -0.12718
C         40.42281        53.01788         0.05502
C         39.06869        52.29958        -0.01650
C         40.37528        54.27386         0.90747
C         39.23399        54.70808         1.48554
C         40.36717        57.33067         0.82032
C         39.17985        56.85264         1.43090
C         40.32634        58.77751         0.51673
C         39.02404        59.49824         0.45588
C         40.19220        61.53038        -0.39508
C         38.97460        60.85878        -0.15907
C         42.87570        35.98493         1.57818
C         42.77453        37.32025         1.17481
C         41.53712        38.00036         1.03137
C         42.72582        40.04892         0.28838
C         41.46440        39.36983         0.66662
C         42.69662        41.48086        -0.13671
C         41.40505        42.18306        -0.07363
C         42.57291        44.31519        -0.89090
C         41.47915        43.64643        -0.11169
C         42.55555        45.79684        -1.03822
C         41.40121        46.55788        -0.49723
C         42.72897        48.61909        -0.36048
C         41.46199        47.91527        -0.31674
C         42.76026        49.97031         0.02169
C         41.55068        50.77256         0.15592
C         42.85691        52.86043         0.67418
C         41.59178        52.13236         0.43393
C         42.89808        54.37149         0.71060
C         41.61708        55.11360         0.97953
C         42.76107        57.19161         0.19232
C         41.56272        56.57814         0.68050
C         42.73056        58.62445        -0.22265
C         41.48260        59.41833        -0.14046
C         42.68731        61.55774        -0.21160
C         41.47779        60.90735        -0.22314
C         45.30776        33.11841         1.72458
C         44.12770        33.85877         1.85300
C         45.33092        35.85565         1.16602
C         44.10938        35.24603         1.56563
C         45.37731        37.28806         0.90923
C         44.02398        38.06674         0.88585
C         45.10366        39.83417        -0.58908
C         43.93561        39.25252         0.06779
C         45.11929        41.30884        -1.00015
C         43.83002        42.08051        -0.91728
C         45.13886        44.27457        -1.20276
C         43.84323        43.55490        -1.15939
C         45.13063        45.69237        -1.22818
C         43.84238        46.52607        -1.41518
C         45.15854        48.53210        -0.81583
C         43.92982        47.90337        -0.76519
C         45.29518        49.91607        -0.33167
C         44.06369        50.63882         0.15402
C         45.18865        52.90131        -0.35235
C         44.12056        52.12875         0.35965
C         45.21126        54.38698        -0.28120
C         44.06563        55.08298         0.12672
C         45.08446        57.22014        -0.77144
C         43.95691        56.49700        -0.04808
C         45.16082        58.69277        -0.41196
C         43.99809        59.37732        -0.22927
C         45.23003        61.53913        -0.15533
C         43.95569        60.83001         0.18995
C         46.49126        33.71152         1.29404
C         47.73045        35.75639         0.59789
C         46.52894        35.10131         0.99051
C         47.73801        37.11472         0.17948
C         46.51074        37.83134         0.18264
C         47.70173        39.89448        -0.77821
C         46.41285        39.10850        -0.51149
C         47.62983        41.37593        -0.90911
C         46.39342        42.06309        -1.02995
C         47.61327        44.19004        -1.16749
C         46.36671        43.50225        -1.10883
C         47.60520        45.64233        -1.47825
C         46.34691        46.40456        -1.31670
C         47.58185        48.56302        -1.24505
C         46.38047        47.83798        -1.19392
C         47.62150        49.99877        -1.10899
C         46.48364        50.69036        -0.73457
C         47.60286        52.93615        -1.26556
C         46.37809        52.15630        -0.88707
C         47.61853        54.39300        -0.98105
C         46.42039        55.08418        -0.67702
C         47.61460        57.23634        -0.78786
C         46.41913        56.51480        -0.67435
C         47.59628        58.69341        -0.71642
C         46.42817        59.39380        -0.46699
C         47.66262        61.56369        -0.40899
C         46.42059        60.85577        -0.35234
C         48.94298        37.84687        -0.06364
C         50.10638        40.00793        -0.24821
C         48.94733        39.23237        -0.32744
C         50.10450        41.40144        -0.55980
C         48.85660        42.09299        -0.89246
C         50.12907        44.22990        -1.23937
C         48.84204        43.49907        -1.11048
C         50.15077        45.70105        -1.11458
C         48.91286        46.39862        -1.54104
C         49.99650        48.58365        -0.81440
C         48.90003        47.92126        -1.62456
C         50.05696        50.05424        -1.00463
C         48.89684        50.72126        -1.25178
C         50.22808        52.94424        -1.57492
C         48.88537        52.18967        -1.52188
C         50.11103        54.39379        -1.11018
C         48.86085        55.09444        -1.01693
C         50.10367        57.20058        -0.69325
C         48.86464        56.51868        -0.84953
C         50.16007        58.67613        -0.79279
C         48.84707        59.45315        -0.89656
C         50.12972        61.55077        -0.49830
C         48.88407        60.89858        -0.58293
C         51.29294        42.10313        -0.41400
C         52.51121        44.30040        -0.26221
C         51.42137        43.49591        -0.82290
C         52.44916        45.66113        -0.19748
C         51.26893        46.36836        -0.65958
C         52.47576        48.58422        -0.18489
C         51.21854        47.83501        -0.42838
C         52.50962        49.98549        -0.34343
C         51.41030        50.70745        -1.11287
C         52.46793        52.86820        -0.48917
C         51.34676        52.20434        -0.85725
C         52.57220        54.32802        -0.73556
C         51.29023        55.07488        -0.80569
C         52.52610        57.15992        -0.10384
C         51.29218        56.47376        -0.55931
C         52.53412        58.68052         0.03081
C         51.34556        59.42030        -0.39273
C         52.58994        61.50776        -0.09020
C         51.36000        60.83399        -0.38755
C         53.55406        46.40120         0.53833
C         54.78367        48.59168         0.58510
C         53.61556        47.89146         0.28475
C         54.82303        50.00817         0.51252
C         53.65171        50.69103         0.07237
C         54.88017        52.89820         0.46840
C         53.60529        52.16132         0.14643
C         55.01679        54.32051         0.10986
C         53.85022        55.04540        -0.44685
C         55.01636        57.20463        -0.07511
C         53.83456        56.50874        -0.22104
C         55.01590        58.65135         0.04351
C         53.83150        59.37226         0.03757
C         55.00233        61.50928         0.43216
C         53.80662        60.82617         0.08952
C         56.02812        50.73036         0.80205
C         57.31975        52.84772         0.89220
C         56.11813        52.12293         0.70635
C         57.38204        54.25700         0.76169
C         56.19642        54.97748         0.30442
C         57.57847        57.13554         0.29503
C         56.29081        56.42581        -0.02651
C         57.58551        58.63831         0.37023
C         56.28700        59.40292         0.15373
C         57.39173        61.43921         1.04489
C         56.22384        60.82013         0.58681
C         58.55136        54.97166         1.09397
C         59.68935        57.09185         1.59769
C         58.64342        56.38641         1.01176
C         59.71043        58.52896         1.68225
C         58.64293        59.29926         1.14700
C         59.66525        61.33576         2.02521
C         58.57667        60.70214         1.36819
C         60.76538        59.19791         2.34401
C         60.74511        60.58866         2.48594
O         51.78375        50.64416        -2.48840
O         37.09897        58.62285        -0.79826
O         48.02729        52.58526        -2.62993
O         48.32321        45.85649        -2.76909
O         57.29667        56.67073        -1.06241
O         41.24514        44.22634         1.22448
O         47.07166        39.10442        -1.82257
O         44.94947        38.15815         2.02439
O         52.31858        57.80913         1.20696
O         42.54655        54.81878         2.07282
O         38.21553        53.09122        -0.91726
O         41.86078        58.81080        -1.42029
O         39.31206        55.80921         2.34870
O         51.06291        43.71541        -2.23144
O         44.89049        40.25537        -1.98919
O         49.60148        59.12152        -2.09403
O         37.11701        54.30002         2.55750
O         50.13709        48.15357         0.57321
O         43.77825        52.40339         1.74004
O         44.98196        50.00097         1.11744
O         57.26949        59.23806        -0.92239
O         35.47270        50.41029        -0.67280
O         34.63776        56.98346         2.47609
O         45.22046        52.47153        -1.76560
O         43.53815        42.59763        -2.24750
O         53.85552        52.67328         1.51602
O         43.12475        41.15943         1.25072
O         42.08274        44.92412        -2.13574
O         39.80614        59.51343         1.69068
O         53.51459        54.64337        -1.83304
O         44.71972        57.15000        -2.18767
H         45.44624        57.55260        -2.70865
O         50.64689        52.98000        -2.95494
H         51.08675        52.09274        -3.12803
O         43.91027        60.79848         1.67469
H         44.76798        60.44132         1.99016
O         54.82050        45.78844         0.27924
H         55.01856        45.88615        -0.67472
O         43.77259        46.79298        -2.83867
H         43.30278        46.02940        -3.24833
O         40.75065        53.44167        -1.30035
H         39.89722        53.61000        -1.76341
O         40.10917        48.41880         1.59866
H         40.94249        48.72830         2.01211
O         34.02932        61.24221         2.24835
H         33.31540        60.71816         2.67023
O         39.11132        48.13618        -1.90664
H         38.33332        47.73498        -2.34641
O         49.16862        48.27897        -2.99806
H         48.68973        47.63346        -3.56645
H         29.52140        56.58728         0.12432
H         28.33885        58.66894        -0.45155
H         30.49372        62.40926        -0.68615
H         28.38307        61.11382        -0.92675
H         31.89583        52.39119         1.01036
H         30.71075        54.49703         0.63799
H         32.83276        62.53330        -0.03811
H         34.63255        47.91936         1.40636
H         33.20046        50.37553         1.79698
H         35.27417        62.60030         0.05917
H         36.82407        43.89414         0.64983
H         35.67613        46.03275         0.76108
H         37.67199        62.52546        -0.61529
H         39.34991        39.63461         1.00509
H         38.10777        41.73100         0.77698
H         40.15901        62.59328        -0.68059
H         41.95551        35.44015         1.83879
H         40.60734        37.46208         1.26959
H         42.72913        62.65341        -0.31045
H         45.29504        32.04369         1.95466
H         43.19921        33.36026         2.16582
H         45.25325        62.63639        -0.06716
H         47.40349        33.10902         1.18056
H         48.67288        35.18989         0.59857
H         47.65708        62.65253        -0.25236
H         49.90375        37.34410         0.12224
H         51.05689        39.53793         0.04370
H         50.14709        62.64153        -0.35739
H         52.17092        41.59399         0.01169
H         53.35620        43.77629         0.20995
H         52.58038        62.60489        -0.01332
H         53.36123        46.26179         1.64034
H         55.67323        48.03685         0.91755
H         54.96764        62.59406         0.61313
H         56.93129        50.15336         1.05439
H         58.23679        52.29995         1.15874
H         57.36621        62.51312         1.28446
H         59.40200        54.41894         1.52186
H         60.49761        56.53346         2.09417
H         59.63811        62.42339         2.18226
H         61.60799        58.61478         2.74156
H         61.57996        61.09365         2.99151
