         334
 CSIRO Nanostructure Databank - Neutral Graphene Oxide Data Set
C         30.33766        57.22196         0.17799
C         30.33797        58.64333         0.40593
C         29.15903        59.32350         0.80122
C         30.38858        61.40309         1.01945
C         29.19442        60.69068         1.08753
C         32.72764        52.92671        -0.15777
C         32.69452        54.33108        -0.09109
C         31.51052        55.07745        -0.08720
C         32.78756        57.21685        -0.13173
C         31.51886        56.50493        -0.00543
C         32.75476        58.71906        -0.31125
C         31.54376        59.37183         0.29631
C         32.83806        61.44912         0.63533
C         31.59369        60.75381         0.62999
C         35.24108        48.69846        -0.04679
C         35.23937        50.08395        -0.16918
C         33.99917        50.80717        -0.17786
C         35.20696        52.94531        -0.32318
C         33.95449        52.20038        -0.18265
C         35.20064        54.31550        -0.29583
C         33.98748        55.05995         0.19070
C         35.25540        57.20021        -0.19977
C         33.96945        56.52444        -0.18231
C         35.27642        58.68186        -0.16617
C         34.03896        59.40499         0.07945
C         35.33261        61.43543         0.66839
C         34.07234        60.77038         0.42562
C         37.79804        44.39647         0.25423
C         37.74736        45.81977         0.06583
C         36.53860        46.49480         0.10920
C         37.80391        48.72104         0.07956
C         36.47116        47.95086         0.21137
C         37.74994        50.13113        -0.34928
C         36.48287        50.82119        -0.34704
C         37.67169        52.94742        -0.71267
C         36.45187        52.21750        -0.52633
C         37.70373        54.33687        -0.60783
C         36.41129        55.09436        -0.72868
C         37.69476        57.07207         0.37416
C         36.42865        56.50052        -0.20468
C         37.79241        58.57981         0.32867
C         36.59025        59.39503         0.06689
C         37.80753        61.37184         0.93017
C         36.55829        60.78336         0.57860
C         40.27125        40.19641         0.83178
C         40.21825        41.55376         0.49068
C         39.03083        42.30093         0.50969
C         40.17616        44.31887        -0.50422
C         38.97143        43.66683         0.13520
C         40.20709        45.81950        -0.37117
C         39.00213        46.53849        -0.15468
C         40.21392        48.64469        -0.53966
C         39.02000        47.94651        -0.21141
C         40.19276        50.06835        -0.70025
C         38.93758        50.77395        -0.67774
C         40.18896        52.93778        -0.91881
C         38.90114        52.19958        -1.16285
C         40.18509        54.33220        -0.66852
C         38.94294        55.04683        -0.51881
C         40.17707        57.04241         0.20878
C         38.96987        56.39979        -0.08185
C         40.16142        58.34339         0.98097
C         38.95161        59.19336         0.69122
C         40.25759        61.23372         1.21245
C         39.00316        60.63259         0.92744
C         42.73511        35.90686         1.20579
C         42.70949        37.31678         0.95235
C         41.52218        38.04092         0.95225
C         42.72748        40.17640         0.77473
C         41.50574        39.47109         0.84450
C         42.69218        41.68352         0.78011
C         41.49809        42.17861        -0.02604
C         42.66732        44.36322        -0.23471
C         41.48028        43.68293        -0.10941
C         42.68136        45.77464        -0.58401
C         41.42089        46.49489        -0.58650
C         42.63621        48.61994        -1.01917
C         41.43293        47.92387        -0.70942
C         42.61657        50.01989        -1.06235
C         41.40649        50.75448        -0.93449
C         42.61934        52.94133        -0.90496
C         41.40556        52.22473        -0.96527
C         42.64568        54.32225        -0.61629
C         41.41636        55.02196        -0.46036
C         42.65253        57.02431         0.31396
C         41.42118        56.37998        -0.00536
C         42.64751        58.38750         0.77405
C         41.46600        59.09194         0.92974
C         42.71899        61.18790         1.32863
C         41.47049        60.51653         1.19477
C         45.19300        33.22309         1.99963
C         43.97657        33.84380         1.72870
C         45.21993        35.85648         0.88039
C         43.92641        35.19946         1.31149
C         45.16933        37.35314         0.99805
C         43.98489        38.02536         0.86432
C         45.17298        40.17723         0.59409
C         43.97820        39.49309         0.76785
C         45.25734        41.67322         0.70064
C         43.96808        42.34611         0.32072
C         45.17938        44.35879        -0.38777
C         43.94309        43.65537        -0.08600
C         45.12984        45.70285        -0.76619
C         43.88740        46.41455        -0.86770
C         45.16587        48.57414        -1.33161
C         43.84888        47.80906        -1.48144
C         45.16830        50.06766        -1.30694
C         43.83165        50.81065        -1.49863
C         45.15396        52.95678        -1.22905
C         43.90217        52.17041        -0.78742
C         45.14454        54.36252        -0.66357
C         43.90006        55.01130        -0.39556
C         45.14435        57.04306         0.24249
C         43.89344        56.34783         0.07691
C         45.17774        58.37596         0.72039
C         43.93028        58.99241         1.29056
C         45.17904        61.15222         1.40410
C         43.94104        60.50203         1.28785
C         46.41524        33.91463         1.91525
C         47.67388        35.96884         1.40882
C         46.47141        35.24613         1.47295
C         47.71449        37.35264         1.11396
C         46.43617        38.14755         1.22335
C         47.69653        40.18230         0.40433
C         46.42552        39.38267         0.32940
C         47.70750        41.52686         0.06064
C         46.47550        42.27454         0.03225
C         47.67169        44.31174        -0.62337
C         46.42493        43.61432        -0.35453
C         47.65634        45.70839        -0.82819
C         46.38751        46.39824        -1.23188
C         47.60912        48.60247        -0.86420
C         46.39239        47.87389        -0.92603
C         47.64197        50.02899        -0.86453
C         46.34261        50.73420        -0.57587
C         47.64782        52.91746        -0.44770
C         46.40384        52.19839        -0.85793
C         47.62008        54.34884        -0.98570
C         46.34823        55.04871        -0.56499
C         47.60094        57.10258        -0.01308
C         46.36293        56.40207        -0.12409
C         47.61009        58.40973         0.49371
C         46.39751        59.05844         0.84273
C         47.63344        61.11144         1.46210
C         46.41115        60.45811         1.27795
C         48.90102        38.06747         0.96062
C         50.10935        40.21145         0.77207
C         48.92372        39.46986         0.67752
C         50.22332        41.56388         0.34539
C         49.02125        42.12093        -0.43616
C         50.05926        44.40498        -0.78449
C         48.91123        43.62285        -0.60104
C         50.08299        45.78384        -0.57893
C         48.84786        46.46330        -0.70885
C         50.09178        48.60847        -0.89455
C         48.84740        47.89828        -0.78657
C         50.08177        50.01803        -1.14077
C         48.86402        50.74685        -0.99978
C         50.10917        52.91605        -1.09482
C         48.88795        52.18525        -0.91833
C         50.13846        54.39222        -0.96442
C         48.89350        55.10351        -0.70974
C         50.04032        57.29515        -0.63446
C         48.84484        56.45101        -0.40865
C         50.01418        58.76768        -0.20149
C         48.94062        59.00557         0.87010
C         50.08854        61.11720         1.42411
C         48.88296        60.47055         1.24793
C         51.42571        42.20813         0.66858
C         52.66074        44.46013         0.64663
C         51.85215        43.47315         0.14641
C         52.61762        45.84529         0.13989
C         51.26521        46.55526        -0.03489
C         52.58968        48.61637        -0.80359
C         51.30674        47.91643        -0.69140
C         52.65111        50.04974        -1.25624
C         51.32444        50.74072        -1.62763
C         52.56922        52.92933        -1.51335
C         51.30464        52.21488        -1.28540
C         52.59915        54.44305        -1.42625
C         51.33182        55.10132        -1.02797
C         52.63987        57.31103        -0.76061
C         51.33387        56.58207        -0.96642
C         52.60855        58.70189        -0.08673
C         51.33809        59.28252         0.33557
C         52.56573        61.05170         1.48963
C         51.34017        60.46044         1.10738
C         53.73080        46.62036         0.22271
C         54.94867        48.81786        -0.03748
C         53.65013        48.12161         0.14979
C         55.07160        50.12458        -0.49527
C         53.89805        50.84642        -1.02714
C         55.03758        53.02225        -1.42037
C         53.85484        52.20746        -1.32848
C         55.14014        54.37394        -1.05771
C         53.92840        55.23371        -1.39148
C         55.07321        57.12627        -0.22705
C         53.88520        56.53721        -0.63416
C         55.06252        58.46753         0.36160
C         53.85214        59.17692         0.52432
C         55.01784        61.03519         1.62602
C         53.81316        60.42803         1.23157
C         56.34269        50.73861        -0.18427
C         57.73377        52.85708        -0.22663
C         56.79129        51.93849        -0.71398
C         57.61904        54.26490        -0.44359
C         56.37253        55.00016        -0.68500
C         57.52535        57.06067         0.07900
C         56.33835        56.39201        -0.29937
C         57.51697        58.39064         0.62921
C         56.26831        59.06303         0.82254
C         57.44969        60.98802         1.83281
C         56.26307        60.38536         1.41607
C         58.79991        54.99830        -0.21575
C         59.99786        57.10764         0.15890
C         58.79588        56.38953        -0.01623
C         59.98285        58.44463         0.60667
C         58.72392        59.02170         0.97837
C         59.90752        61.15543         1.48920
C         58.74876        60.26146         1.83054
C         61.15812        59.24141         0.66045
C         61.06464        60.61600         0.98141
O         49.10451        41.54030        -1.84977
O         52.48926        53.76936        -2.73432
O         52.98805        48.93251        -2.18065
O         37.22135        48.46923         1.38795
O         52.73742        58.51212        -1.55992
O         36.06665        59.25523        -1.29524
O         51.26264        43.77309        -1.10154
O         50.50400        57.17401        -2.02554
O         45.52267        49.39825        -2.54087
O         56.15847        52.36830        -1.90200
O         43.60988        51.00015        -2.90640
H         44.24865        51.68591        -3.22631
O         50.88202        46.83371         1.36826
H         51.54795        47.48705         1.70348
O         46.38632        38.62877         2.59741
H         46.42186        37.85140         3.19275
O         49.67049        59.55467        -1.35824
H         50.20450        59.20076        -2.10661
O         46.34548        38.89717        -1.04564
H         46.61412        39.62441        -1.64647
O         51.22263        50.67827        -3.08773
H         51.70480        49.86313        -3.36349
O         45.40912        41.94578         2.15889
H         45.69218        42.88131         2.24947
O         58.97965        59.78042         3.23254
H         59.85405        59.33479         3.23318
O         43.67966        47.58572        -2.91607
H         43.87021        48.45298        -3.34893
O         54.18558        55.65860        -2.76354
H         53.79409        54.97142        -3.35407
O         41.67133        41.71357        -1.39498
H         40.99452        42.18492        -1.93614
O         47.68749        52.98725         1.02016
H         47.43606        52.08833         1.34331
O         37.58142        56.74086         1.80665
H         38.38674        57.11314         2.25313
O         45.34000        35.58775        -0.56478
H         44.66956        36.13742        -1.02372
O         50.49269        41.33065        -2.18287
H         50.87320        42.25040        -2.17469
O         53.12672        48.55483         1.48401
H         53.81601        48.33775         2.14827
O         44.00172        51.92170         0.65150
H         43.97548        52.79291         1.10275
O         45.11252        53.12181        -2.68639
H         45.99377        53.51032        -2.93444
O         36.23449        55.26827        -2.19212
H         36.42114        54.40413        -2.61815
O         40.01919        57.93704         2.41024
H         40.79424        57.37358         2.62512
O         42.50946        42.08676         2.16980
H         43.36967        41.91787         2.62253
O         32.65707        58.94988        -1.76969
H         32.75899        59.91319        -1.92486
O         47.58641        54.21306        -2.44974
H         47.85548        55.07089        -2.84293
O         40.04266        44.02685        -1.95441
H         40.69665        44.59005        -2.42319
O         34.11389        55.06836         1.66211
H         34.15371        54.13337         1.95695
O         38.76393        52.11404        -2.63928
H         38.01958        51.50338        -2.82697
O         49.40478        58.26268         2.03893
H         48.74488        58.38415         2.75371
O         43.94614        58.61354         2.72432
H         43.23082        59.12462         3.16084
O         46.34321        46.34496        -2.70576
H         45.47692        46.73008        -2.99255
O         46.18580        50.51602         0.88464
H         45.33001        50.94703         1.14508
H         29.38381        56.67879         0.25753
H         28.21535        58.76594         0.88568
H         30.41190        62.47212         1.27481
H         28.27104        61.20582         1.38797
H         31.78112        52.36686        -0.21459
H         30.54067        54.55784        -0.13641
H         32.85183        62.51388         0.91099
H         34.28758        48.14952        -0.07387
H         33.06110        50.23658        -0.10247
H         35.30414        62.48295         1.00429
H         36.88616        43.89016         0.60742
H         35.59797        45.92341         0.11281
H         37.83486        62.43437         1.21592
H         39.33890        39.65865         1.06500
H         38.11026        41.82423         0.88391
H         40.29049        62.31837         1.39679
H         41.78316        35.39706         1.42236
H         40.56419        37.50843         1.05126
H         42.72241        62.28462         1.42399
H         45.19647        32.18105         2.35010
H         43.03519        33.29986         1.89758
H         45.20145        62.24040         1.56999
H         47.33917        33.41977         2.24985
H         48.62264        35.43958         1.59563
H         47.63323        62.17333         1.75283
H         49.86350        37.53892         1.04354
H         51.00421        39.72407         1.18866
H         50.11716        62.15311         1.79358
H         52.09637        41.68514         1.36984
H         53.28163        44.26449         1.53457
H         52.55346        62.01082         2.02731
H         54.69772        46.16845         0.49556
H         55.84337        48.33055         0.38077
H         54.99569        62.01311         2.12758
H         56.93956        50.26449         0.60875
H         58.56389        52.50699         0.40450
H         57.41050        61.98731         2.29201
H         59.75249        54.45414        -0.13761
H         60.95814        56.60762        -0.03819
H         59.84775        62.22575         1.73336
H         62.11507        58.81587         0.32845
H         61.94567        61.25706         0.82897
