         257
 CSIRO Nanostructure Databank - Neutral Graphene Oxide Data Set
C         30.49080        32.19804         1.44075
C         30.40313        32.99636         0.45203
C         30.21746        35.90386        -0.06564
C         30.41099        37.10937         0.20052
C         30.22064        40.33921        -0.04643
C         30.23207        41.57941        -0.12719
C         33.00688        29.64187         2.23985
C         31.87655        30.16169         2.28222
C         32.87887        31.55766         0.05716
C         31.09974        30.94335         1.40119
C         32.77260        32.97419        -0.33871
C         31.41956        33.62802        -0.37346
C         32.58405        35.94504        -0.86958
C         31.30681        35.12400        -0.64884
C         32.64845        37.40372        -0.46146
C         31.45022        38.03504         0.04894
C         32.63624        40.26324         0.27492
C         31.35289        39.47157         0.32188
C         32.63255        41.71725        -0.14346
C         31.32648        42.49341        -0.21787
C         32.65844        44.42542        -0.05691
C         31.51958        43.84933        -0.26998
C         35.56524        27.53777         1.31783
C         35.36172        28.98226         1.45915
C         34.02047        29.56480         1.09274
C         35.28396        31.78826         0.44524
C         34.04201        30.99142         0.52245
C         35.26605        32.99895        -0.51053
C         33.92128        33.71105        -0.55275
C         35.19333        35.93651        -0.99218
C         33.89499        35.15279        -0.94809
C         35.14686        37.46832        -0.88009
C         33.86219        38.11316        -0.49159
C         35.19159        40.25640         0.27752
C         33.92062        39.47843         0.12672
C         35.17494        41.76845         0.60218
C         33.93352        42.48591         0.06028
C         35.13220        44.63135         0.82673
C         33.90508        43.97402         0.24488
C         35.29432        46.12894         0.59320
C         37.94752        27.47377         0.89442
C         36.64456        26.94634         1.20369
C         37.95237        28.89858         0.93673
C         36.70943        29.69328         1.19765
C         37.76812        31.72699        -0.00091
C         36.63900        31.12681         0.71880
C         37.78254        33.24287         0.10049
C         36.46959        33.90626        -0.32091
C         37.73121        36.01343        -0.77858
C         36.45900        35.22587        -0.66354
C         37.75558        37.53396        -0.75456
C         36.43867        38.26622        -0.73087
C         37.75294        40.31555         0.13506
C         36.46572        39.68591        -0.27699
C         37.67905        41.76940         0.41343
C         36.40741        42.45817        -0.05483
C         37.71826        44.76584         0.13368
C         36.41468        43.99900         0.17663
C         37.76437        46.22035         0.57640
C         36.42013        46.64636         0.74125
C         40.23639        24.59001         0.27311
C         39.20456        25.29978         0.46565
C         40.42363        27.34025         0.41895
C         39.07735        26.69306         0.59098
C         40.45807        28.84392         0.36349
C         39.18419        29.61573         0.59991
C         40.18419        31.39659        -0.95741
C         39.07457        31.03080         0.02924
C         40.30269        33.24394        -0.26723
C         38.94669        33.83191        -0.69133
C         40.17525        36.03808        -0.35262
C         39.00386        35.33872        -0.48210
C         40.18569        37.49114        -0.20147
C         38.99705        38.21785        -0.28849
C         40.22077        40.36720         0.26686
C         38.96112        39.64197         0.04878
C         40.21282        41.75590         0.40057
C         38.96262        42.54074         0.45587
C         40.15956        44.74318         0.76642
C         39.04747        44.00126        -0.02111
C         40.23492        46.20431         0.30563
C         38.94653        46.93287         0.62964
C         40.31645        48.96762         0.67133
C         39.23706        48.30762         0.73737
C         42.77391        24.44445        -0.27440
C         41.53545        24.99307        -0.05935
C         42.92881        27.26008         0.03640
C         41.55373        26.59075        -0.29577
C         42.86714        28.69128        -0.49933
C         41.64159        29.52614        -0.24298
C         42.79460        31.57731        -1.10386
C         41.57056        30.81592        -0.69765
C         42.81943        33.10949        -1.00849
C         41.48314        33.91356        -0.97683
C         42.71329        35.97040         0.06937
C         41.44957        35.26680        -0.22960
C         42.64817        37.45814         0.12201
C         41.46004        38.16877         0.04204
C         42.69505        40.31933         0.25146
C         41.47973        39.62891         0.19640
C         42.72652        41.73180         0.66466
C         41.44183        42.49706         0.75292
C         42.81805        44.73523         0.48945
C         41.50622        44.01722         0.76071
C         42.85102        46.17357         0.04470
C         41.53917        46.95501         0.12137
C         42.92597        48.89856         0.37202
C         41.58481        48.45957         0.39425
C         43.83071        25.14176        -0.56849
C         45.43619        27.13358        -0.79232
C         44.13779        26.46180        -0.59070
C         45.47039        28.66972        -0.89045
C         44.12926        29.37015        -0.94105
C         45.39153        31.62766        -0.65616
C         44.13488        30.86781        -1.03831
C         45.24668        33.06996        -0.30215
C         44.06359        33.75620        -0.48213
C         45.18346        35.93198         0.31536
C         44.00857        35.29546        -0.40767
C         45.20908        37.42908         0.17880
C         43.92527        38.18707         0.19475
C         45.18676        40.30374         0.06136
C         43.96201        39.65872         0.03708
C         45.27819        41.73216         0.43162
C         44.02339        42.48724         0.63302
C         45.42142        44.59489         0.04646
C         44.06366        43.92459         0.21720
C         45.45490        46.06999         0.32145
C         44.26198        46.86734         0.03171
C         44.00979        48.27737         0.32947
C         47.71042        27.37914        -0.27755
C         46.70317        26.61999        -0.21931
C         47.93226        28.76445        -0.25309
C         46.67929        29.45406        -0.47044
C         47.81964        31.51418         0.22837
C         46.59596        30.83581        -0.26758
C         47.72994        32.97014         0.60782
C         46.33182        33.63550         0.63241
C         47.69058        35.82471         0.06285
C         46.43010        35.16697         0.54391
C         47.69518        37.27479        -0.34903
C         46.42953        38.09403        -0.35188
C         47.73290        40.26542        -0.05757
C         46.43680        39.59690        -0.34429
C         47.67548        41.52408         0.45584
C         46.57356        42.44686         0.26439
C         48.08437        44.66501        -0.08651
C         46.71570        43.80412         0.15563
C         47.80913        45.77451         0.94508
C         46.73009        46.43729         0.73723
C         50.21226        29.02737         0.88799
C         49.28217        29.43752        -0.25882
C         50.26447        31.70932        -0.12805
C         49.12584        30.94796        -0.21576
C         50.27874        32.95253         0.73557
C         49.00568        33.76369         0.46917
C         50.08270        35.87126        -0.44191
C         48.98400        35.09808         0.22092
C         50.21485        37.30757         0.01183
C         48.98687        38.06087        -0.40427
C         50.36969        40.20306        -0.10188
C         49.02274        39.54324        -0.25784
C         50.38993        41.61582        -0.48478
C         49.56688        42.56050         0.11237
C         50.72394        44.36496        -0.53041
C         49.45901        43.97298        -0.08833
C         51.02265        29.68955         1.58152
C         52.14803        31.71261         2.16348
C         52.04411        30.42365         2.15653
C         52.59068        32.96259         1.78541
C         51.71220        33.58598         0.88015
C         52.82874        35.77091         0.24092
C         52.38226        34.43416        -0.07333
C         52.57923        36.98262         0.19905
C         51.52038        38.00586         0.30424
C         52.70293        40.35347        -0.00819
C         51.56548        39.48654         0.07074
C         52.94510        41.58611        -0.07337
C         52.28774        42.66833        -0.74164
C         51.96565        44.00493        -0.39538
O         42.81657        32.41238        -2.29346
O         50.58896        35.49248        -1.48530
O         36.42571        39.37252        -1.70355
O         42.33024        44.55158         1.85068
O         47.74581        31.92021         1.62999
O         48.76014        42.05964         1.14072
O         40.82273        28.09354         1.58619
O         35.20490        36.78632        -2.16799
O         33.12530        35.52226        -2.13918
O         31.97810        39.97018         1.54841
O         44.14143        35.70431        -1.74438
O         44.61767        44.15705        -1.10829
O         47.59696        36.22870        -1.35955
O         36.10269        29.54358         2.53601
O         45.68343        35.69577         1.68380
O         31.70509        30.76611         0.06160
O         38.19533        42.27129         1.67645
O         43.55691        46.44853        -1.17284
O         51.24058        42.03454        -1.52792
O         50.60859        37.57893         1.38507
O         39.89445        31.56958        -2.17516
O         44.80247        42.09861         1.80451
O         44.72123        37.95585         1.45103
O         34.69913        39.47111         1.40796
O         45.04899        31.32798        -2.06099
O         41.99020        35.24424         1.12221
O         36.85126        44.65255        -1.04482
O         49.08121        38.86827        -1.59740
O         39.52248        30.81349         1.41453
O         46.27297        38.84219        -1.58923
O         45.65458        27.80486        -2.05235
O         37.88536        36.79807        -2.00798
O         43.22981        28.75677        -1.91357
O         35.96694        32.01917         1.71919
O         40.71930        46.52007        -1.02400
O         42.04920        41.93038         1.95693
O         33.54283        41.98754        -1.25948
O         31.00591        34.16811        -1.65499
O         35.52387        32.46226        -1.89462
O         41.29968        26.75732        -1.68643
H         42.09535        26.50473        -2.20205
O         38.63330        33.62185        -2.05771
H         39.38865        33.94218        -2.60919
O         49.96563        29.06554        -1.47920
H         50.10292        28.09411        -1.47055
O         38.02695        33.61083         1.49876
H         37.33025        33.14467         2.03186
O         34.42466        31.58390        -2.24177
H         34.13581        31.94729        -3.11508
O         50.02638        32.45314         2.07109
H         49.97375        33.21210         2.68848
O         43.19440        27.32064         1.42991
H         43.06220        26.43655         1.83107
O         40.52743        33.10346         1.03810
H         39.66899        33.10420         1.55559
O         52.47012        34.03950        -1.32213
H         52.83230        34.72738        -1.91673
O         33.45701        28.69128         0.13539
H         32.59265        29.06669        -0.15634
O         39.41865        43.97862        -1.40044
H         38.59415        44.03115        -1.93774
O         39.70837        44.77247         2.13053
H         40.48448        44.68280         2.72710
O         35.23895        41.91089         2.01531
H         34.92863        41.06583         2.41874
O         47.99297        45.18434        -1.39376
H         47.17348        45.71615        -1.48437
O         51.43419        31.28623        -0.62806
H         51.29121        30.40785        -1.05884
O         45.79225        33.27336         1.92359
H         45.38256        34.08327         2.31638
O         41.14007        34.22792        -2.32104
H         41.64021        33.61208        -2.91325
O         35.19562        44.42075         2.22157
H         34.33657        44.64831         2.63104
O         36.35961        42.21893        -1.46311
H         35.51384        42.54770        -1.83735
