         410
 CSIRO Nanostructure Databank - Neutral Graphene Oxide Data Set
C         28.08311        27.35078        -1.44720
C         28.02915        28.76471        -1.33571
C         26.79125        29.47443        -1.36679
C         27.96018        31.61396        -1.15415
C         26.75862        30.84305        -1.27179
C         27.94853        33.04425        -1.07039
C         26.70656        33.78830        -1.13663
C         27.85171        35.95460        -0.81149
C         26.64865        35.13908        -1.05785
C         27.78641        37.45336        -1.13948
C         26.59145        38.10576        -0.49799
C         27.83341        40.15717         0.00421
C         26.62442        39.35822         0.00319
C         27.84008        41.51567         0.35110
C         26.67704        42.17371         0.92431
C         27.69970        44.41612         0.79214
C         26.62895        43.49771         1.21536
C         27.83568        45.76391         1.35450
C         30.51900        27.37845        -1.23901
C         29.28955        26.68210        -1.41062
C         30.48339        28.79725        -1.12509
C         29.23943        29.49415        -1.18746
C         30.42773        31.65258        -1.00472
C         29.20535        30.92260        -1.10553
C         30.40555        33.06109        -1.03526
C         29.17377        33.75093        -1.02876
C         30.39997        36.00235        -1.26210
C         29.16979        35.22701        -0.87533
C         30.34771        37.49949        -1.14861
C         29.07378        38.16728        -0.78016
C         30.32003        40.21606        -0.21977
C         29.06682        39.48744        -0.36957
C         30.27198        41.64129        -0.02105
C         29.06028        42.27979         0.20068
C         30.22026        44.54005         0.38780
C         28.98939        43.75510         0.26817
C         30.18499        45.89843         0.65439
C         28.97010        46.49456         1.16459
C         33.06744        24.64181        -1.58195
C         31.88081        25.26155        -1.42560
C         32.96758        27.40461        -0.91188
C         31.79090        26.69557        -1.20147
C         32.91457        28.82872        -0.69132
C         31.69199        29.53549        -0.90756
C         32.89028        31.66486        -0.60260
C         31.67866        30.94952        -0.85158
C         32.92253        33.09099        -0.65137
C         31.70125        33.78202        -1.11522
C         32.95351        35.98289        -0.79615
C         31.72796        35.28290        -1.23126
C         32.95667        37.44730        -0.75365
C         31.64566        38.23443        -0.92464
C         32.77358        40.28328         0.09100
C         31.54813        39.58809        -0.36310
C         32.82358        41.73503         0.00173
C         31.53355        42.40369        -0.20599
C         32.75574        44.54605         0.44948
C         31.49121        43.89356         0.04062
C         32.72097        46.07499         0.52077
C         31.38191        46.69990         0.38080
C         32.43226        48.64127        -0.59362
C         31.26954        47.97183        -0.11943
C         35.82252        23.29167        -1.72582
C         35.50045        24.54394        -1.04925
C         34.36936        25.40270        -1.58483
C         35.36599        27.37005        -0.33838
C         34.25497        26.73799        -0.87454
C         35.23328        28.76698         0.23424
C         34.06882        29.53175        -0.31636
C         35.30750        31.66644        -0.07953
C         34.08797        30.94617        -0.30891
C         35.30837        33.07504        -0.09490
C         34.10047        33.80525        -0.38958
C         35.31586        35.98095        -0.12925
C         34.11551        35.27104        -0.44394
C         35.33694        37.40087        -0.04674
C         34.14089        38.11531        -0.20905
C         35.33892        40.29965         0.17226
C         34.08923        39.52379         0.17408
C         35.31285        41.71203         0.19838
C         34.04272        42.44999         0.13756
C         35.24047        44.67358         0.46927
C         34.02631        43.86245         0.23112
C         35.20928        46.14896         0.16666
C         33.96449        46.77572         0.08936
C         35.69909        49.19463        -0.30465
C         33.67856        48.06410        -0.51554
C         35.69891        50.56616         0.02124
C         38.00175        23.18638        -0.60183
C         36.95891        22.60860        -1.40598
C         37.95017        24.54231        -0.24536
C         36.66320        25.23513        -0.32701
C         37.79387        27.34104         0.25513
C         36.62803        26.69178        -0.16019
C         37.72421        28.79085         0.54238
C         36.51969        29.54325         0.17725
C         37.79912        31.65499         0.20036
C         36.54124        30.92959         0.13715
C         37.75863        33.08798         0.10038
C         36.55682        33.77835         0.06685
C         37.81182        35.98074         0.33491
C         36.49441        35.24144         0.44290
C         37.79045        37.43773         0.39568
C         36.56668        38.13552         0.22761
C         37.79225        40.29939         0.25772
C         36.56407        39.57125         0.20597
C         37.77454        41.72828         0.26546
C         36.54173        42.42497         0.25078
C         37.80414        44.64355         0.24123
C         36.53889        43.89653         0.42568
C         37.79323        46.01613         0.16778
C         36.55647        46.80718        -0.26805
C         37.91203        48.91842         0.50681
C         36.69269        48.29882         0.08239
C         37.95397        50.30856         0.82089
C         36.79812        51.10493         0.66713
C         39.96086        20.20849         0.47306
C         39.03209        20.98097        -0.14007
C         40.31148        23.07651         0.22768
C         39.17161        22.41909        -0.23974
C         40.34246        24.51402         0.40789
C         39.10912        25.24616         0.20682
C         40.26708        27.37501         0.71657
C         39.04358        26.64638         0.42539
C         40.26454        28.76794         0.75929
C         39.01349        29.55046         0.72595
C         40.27823        31.70568         0.42990
C         39.02616        30.99345         0.41615
C         40.29513        33.10387         0.26352
C         39.04239        33.83749        -0.14853
C         40.26575        35.93728         0.62641
C         38.98955        35.27580         0.31983
C         40.26768        37.45966         0.71639
C         39.00511        38.16963         0.46484
C         40.27658        40.29068         0.36924
C         39.02729        39.58078         0.35236
C         40.27164        41.71501         0.32636
C         39.02906        42.45514         0.31987
C         40.28325        44.56561         0.23745
C         39.03614        43.86594         0.32078
C         40.30698        45.98056         0.23174
C         39.06059        46.71815         0.61927
C         40.35719        48.89932         0.29255
C         39.14247        48.20492         0.41620
C         40.41591        50.28371         0.73939
C         39.22253        50.89115         1.20141
C         40.46722        52.56304         2.47605
C         39.27040        52.05406         2.02717
C         42.05885        20.11787         1.87871
C         41.26582        20.77019         0.83127
C         42.57065        22.96353         1.37315
C         41.47757        22.28115         0.63870
C         42.83026        24.38160         0.87133
C         41.52116        25.18255         0.77871
C         42.72997        27.31884         0.98790
C         41.52505        26.62630         0.85736
C         42.77867        28.78192         1.11957
C         41.47331        29.54860         1.04305
C         42.74163        31.63506         0.66507
C         41.51659        30.99251         0.70631
C         42.77686        33.06915         0.30623
C         41.51452        33.83167         0.30164
C         42.76638        35.98320         0.48622
C         41.54389        35.23573         0.39822
C         42.76163        37.42767         0.50836
C         41.54361        38.15841         0.51139
C         42.76802        40.26755         0.31614
C         41.52219        39.56882         0.39094
C         42.76286        41.68827         0.24601
C         41.51347        42.40903         0.26602
C         42.71153        44.54871        -0.00788
C         41.50314        43.83171         0.16992
C         42.69274        45.92756        -0.21775
C         41.49801        46.67928        -0.02563
C         42.68477        48.73014        -0.62720
C         41.53349        48.13063        -0.11372
C         42.83124        50.79322         0.23994
C         41.64624        51.01795         0.97718
C         42.95559        52.61268         2.31158
C         41.69192        52.06390         1.94681
C         43.04755        20.79900         2.50028
C         45.50655        23.21753         2.11668
C         43.36488        22.17561         2.16708
C         45.34685        24.48520         1.53985
C         44.00073        25.14520         1.50627
C         45.27039        27.34241         1.04528
C         43.99842        26.62581         1.30308
C         45.22858        28.75730         0.78412
C         44.04148        29.49458         0.83479
C         45.21957        31.66649         0.78981
C         44.02312        30.93741         0.75717
C         45.22629        33.14303         1.12108
C         44.05792        33.83840         0.45571
C         45.24071        36.00324         0.62124
C         44.01227        35.31061         0.54692
C         45.25216        37.42698         0.51329
C         44.00775        38.13070         0.45357
C         45.24688        40.25905         0.23201
C         44.00700        39.55606         0.34686
C         45.23674        41.68221         0.13110
C         44.00282        42.37159         0.18807
C         45.28085        44.54715        -0.08472
C         43.99140        43.83750         0.17584
C         45.22504        45.89146        -0.71525
C         43.90935        46.59689        -0.71037
C         45.15352        48.71330        -0.96830
C         43.92849        48.05737        -0.80096
C         45.30650        50.77855        -0.02736
C         44.10051        51.27725         0.62127
C         44.12915        52.18032         1.72552
C         47.85684        23.18259         1.59991
C         46.74522        22.55920         2.14761
C         47.77551        24.51437         1.14787
C         46.52211        25.19394         1.17335
C         47.72530        27.33860         0.79486
C         46.47202        26.62716         0.93988
C         47.73521        28.71952         0.70337
C         46.49010        29.45231         0.50224
C         47.75257        31.71763         0.87764
C         46.49907        31.00807         0.56876
C         47.77124        33.13963         0.89028
C         46.52497        33.87204         0.83430
C         47.71656        36.02548         0.70475
C         46.49511        35.27272         0.70679
C         47.73883        37.42048         0.51147
C         46.49306        38.13433         0.40957
C         47.72257        40.24039        -0.01263
C         46.49124        39.54598         0.22038
C         47.70647        41.65866        -0.22320
C         46.48397        42.38645        -0.09424
C         47.69771        44.49801        -0.59001
C         46.51281        43.77937        -0.28516
C         47.69231        45.93458        -0.69210
C         46.47822        46.66152        -0.74096
C         47.66052        48.81788        -0.65217
C         46.42703        48.07185        -0.83419
C         47.69788        50.08896        -0.06371
C         46.60467        50.85760         0.43812
C         50.19271        24.52518         0.45162
C         48.98934        25.21778         0.75040
C         50.19975        27.33595         0.44419
C         48.98259        26.62167         0.69163
C         50.25157        28.75630         0.60919
C         48.99149        29.45085         0.95467
C         50.29757        31.66315         1.19933
C         48.97565        30.94352         1.13885
C         50.29813        33.16579         1.11886
C         48.99256        33.85323         0.96310
C         50.29188        36.07151         0.85722
C         48.95841        35.31053         1.01230
C         50.23582        37.46163         0.37160
C         48.99459        38.12948         0.33154
C         50.16991        40.19013        -0.37484
C         48.96457        39.52617        -0.01496
C         50.08934        41.57206        -0.87560
C         48.88574        42.36236        -0.58975
C         50.14202        44.49004        -1.00898
C         48.91204        43.76661        -0.75513
C         50.14299        45.92910        -1.02138
C         48.91981        46.65486        -0.86060
C         50.13636        48.75556        -1.03452
C         48.90653        48.07927        -0.85090
C         51.34265        25.20499         0.10950
C         52.58169        27.36493        -0.20212
C         51.38699        26.62575         0.11827
C         52.61561        28.77318        -0.01650
C         51.44856        29.45492         0.46489
C         52.79905        31.65030         0.50940
C         51.55313        30.88307         0.87473
C         52.77446        33.14517         0.44555
C         51.55077        33.88966         0.74602
C         52.74828        36.04519         0.47943
C         51.51889        35.26626         0.64781
C         52.68772        37.45650         0.11632
C         51.46635        38.14274         0.04571
C         52.64066        40.27287        -0.58413
C         51.42734        39.54430        -0.32029
C         52.64558        41.61855        -0.97851
C         51.37336        42.32543        -1.19604
C         52.59309        44.49559        -1.29069
C         51.35918        43.79805        -1.15107
C         52.60232        45.91841        -1.36547
C         51.36180        46.64261        -1.20559
C         51.31859        48.06148        -1.21467
C         54.85589        27.39622        -1.08090
C         53.73420        26.69790        -0.72129
C         54.91353        28.81380        -0.92406
C         53.80183        29.51128        -0.36925
C         55.04112        31.60910        -0.60073
C         53.88588        30.92672        -0.20618
C         55.21707        33.07959        -0.28721
C         53.92273        33.79298         0.05016
C         55.09149        35.96701        -0.58488
C         54.04436        35.25560         0.15347
C         55.15679        37.36701        -0.50816
C         53.98625        38.13835        -0.02306
C         55.14940        40.25324        -0.97211
C         53.95475        39.63775        -0.36792
C         55.10673        41.64343        -1.28136
C         53.86049        42.34271        -1.19730
C         55.02998        44.46173        -1.66626
C         53.82326        43.75941        -1.40227
C         55.00737        45.87621        -1.77967
C         53.83447        46.58256        -1.61283
C         56.07787        29.52542        -1.29874
C         56.13874        30.89441        -1.13530
C         55.97276        33.82760        -1.36361
C         55.95634        35.17940        -1.43000
C         56.29589        38.08337        -0.96449
C         56.30515        39.45859        -1.13773
C         56.28527        42.37483        -1.63472
C         56.25149        43.73433        -1.80680
O         28.00152        44.34275        -0.63736
O         35.57995        24.52375         0.39314
O         42.67292        50.09061        -0.96130
O         54.21923        39.15510         0.99639
O         31.52849        43.37106        -1.32865
O         44.48744        22.61329         2.85263
O         48.89790        30.03159         2.32204
O         35.93290        44.29441         1.72630
O         49.68969        35.87594         2.16884
O         43.80461        25.98762         2.66542
O         40.23964        36.62488         1.92940
O         44.43642        45.93840        -1.95035
O         33.25217        39.73809         1.39119
O         41.99141        21.30311        -0.33518
O         50.41583        32.45034         2.41541
O         53.77491        35.76645         1.48607
O         44.76950        44.47328         1.28787
O         32.56012        38.12599        -2.05363
O         45.12586        50.09205        -1.24822
O         32.76967        45.25864         1.73027
O         38.17706        29.17850         1.89809
O         46.52977        30.26719        -0.71761
O         31.90877        34.44169        -2.42755
O         42.09063        29.25083         2.34234
O         43.67503        33.33150        -0.85275
O         30.24678        36.82509        -2.46529
O         50.55823        41.73464        -2.26807
O         34.68799        48.75948        -1.17742
O         28.59093        35.65357         0.41663
O         52.60725        31.11107         1.86506
O         44.98649        33.28271         2.55821
H         45.76863        32.93400         3.03635
O         27.61359        37.56029        -2.58243
H         28.48564        37.33307        -2.99033
O         34.95334        28.60549         1.67131
H         35.78614        28.32221         2.10798
O         34.71212        25.68014        -2.97950
H         33.96924        26.18331        -3.37471
O         43.29373        24.22689        -0.51019
H         42.76163        23.52020        -0.93695
O         36.56247        46.71926        -1.72533
H         35.88777        47.35748        -2.05393
O         56.04578        33.14947         0.91513
H         55.51595        32.80237         1.66430
O         36.22357        35.21607         1.89569
H         37.02804        34.87883         2.34537
O         39.14989        33.92492        -1.61976
H         38.30211        34.28193        -1.96115
O         38.99351        46.62062         2.10245
H         38.83624        45.67872         2.33177
H         27.14626        26.78771        -1.56663
H         25.85512        28.90636        -1.46751
H         25.78438        31.34851        -1.29587
H         25.77229        33.23913        -1.31463
H         25.69043        35.65029        -1.22650
H         25.63981        37.55491        -0.50108
H         25.69877        39.79219         0.40656
H         25.82388        41.54690         1.21953
H         25.76578        43.91342         1.75639
H         26.99096        46.18564         1.91943
H         29.28615        25.58786        -1.50094
H         29.01786        47.53019         1.53113
H         33.10341        23.55848        -1.77006
H         30.95819        24.66710        -1.47574
H         32.33341        49.61140        -1.09656
H         30.28556        48.44609        -0.23012
H         35.15587        22.92607        -2.51974
H         34.84407        51.19003        -0.26899
H         37.15234        21.64119        -1.89095
H         36.82080        52.17342         0.92054
H         39.75295        19.15470         0.70947
H         38.06791        20.53600        -0.42200
H         40.48839        53.38930         3.20051
H         38.32765        52.48095         2.39741
H         41.78508        19.10046         2.19495
H         42.98817        53.38714         3.09085
H         43.65042        20.32387         3.28637
H         45.09084        52.59505         2.05911
H         48.82209        22.66033         1.61285
H         46.82394        21.56952         2.61488
H         48.69203        50.45330         0.24015
H         46.82787        51.54592         1.26750
H         50.20950        23.42710         0.45433
H         50.15584        49.85382        -1.06371
H         52.24252        24.62571        -0.13528
H         52.24195        48.63660        -1.36361
H         55.72714        26.87282        -1.50001
H         53.71583        25.60967        -0.86420
H         55.94651        46.40959        -1.98572
H         53.86247        47.67727        -1.69191
H         56.93907        28.97391        -1.70177
H         57.06494        31.42781        -1.38709
H         56.61960        33.26515        -2.05142
H         56.58289        35.69710        -2.17158
H         57.21247        37.52034        -1.18826
H         57.23285        39.92408        -1.49736
H         57.24394        41.84772        -1.72842
H         57.17362        44.28605        -2.03974
