         404
 CSIRO Nanostructure Databank - Neutral Graphene Oxide Data Set
C          1.19363         3.42852        -0.04344
C         -0.01476         4.09625        -0.13474
C          1.13789         6.21515        -0.51759
C         -0.04648         5.48092        -0.37370
C          1.09535         7.65403        -0.89810
C         -0.10637         8.47350        -0.69707
C          1.17089        10.59138        -0.68477
C         -0.06607         9.83081        -0.71139
C          1.13911        12.01837        -0.41293
C         -0.04665        12.74299        -0.29857
C          1.12758        14.82530         0.31637
C         -0.05556        14.11179        -0.00117
C          1.04949        16.25377         0.71447
C         -0.12897        17.06271         0.37990
C          1.14780        19.16429         0.52418
C         -0.08492        18.41976         0.39459
C          1.15425        20.60157         0.39962
C         -0.05945        21.34769         0.46053
C          1.13743        23.44251         0.11025
C         -0.06734        22.71374         0.33587
C          1.12994        24.87175        -0.02450
C         -0.11784        25.59873        -0.17002
C          1.02642        27.77044        -0.08729
C         -0.17663        26.94795        -0.28810
C          1.02265        29.21393        -0.51996
C         -0.13025        30.05571        -0.14139
C          1.12040        32.15154        -0.46138
C         -0.06270        31.42286        -0.13277
C          1.17086        33.58232        -0.41205
C         -0.02656        34.36808        -0.44893
C          1.23377        36.44552        -0.24323
C          0.00474        35.74306        -0.40046
C          1.28960        37.86671        -0.15846
C          3.65763         3.46058        -0.06306
C          2.41905         4.14080        -0.15728
C          3.63886         6.28481        -0.40409
C          2.38937         5.55461        -0.37971
C          3.64763         7.67938        -0.54555
C          2.43722         8.43604        -0.91748
C          3.60497        10.54598        -0.19542
C          2.38295         9.89412        -0.72880
C          3.56884        11.97497         0.21992
C          2.43518        12.79650        -0.35067
C          3.61804        14.86971         0.51345
C          2.36904        14.17731         0.26690
C          3.63642        16.28424         0.63493
C          2.37799        17.02084         0.82632
C          3.61106        19.16153         0.47870
C          2.36578        18.47441         0.60919
C          3.62158        20.56928         0.27349
C          2.37864        21.29517         0.23472
C          3.57813        23.42731        -0.21257
C          2.36713        22.72427         0.05866
C          3.56610        24.82752        -0.30062
C          2.35356        25.56029        -0.14265
C          3.59524        27.80948        -0.34121
C          2.34999        27.04228        -0.07454
C          3.62061        29.16891        -0.55332
C          2.33592        29.90082        -0.78744
C          3.67173        32.12979        -0.69958
C          2.34034        31.40723        -0.81549
C          3.66176        33.54197        -0.26193
C          2.42047        34.26407        -0.27995
C          3.65723        36.37972         0.11381
C          2.44312        35.69516        -0.14194
C          3.70921        37.79636         0.17837
C          2.48600        38.52371         0.02467
C          6.12270         3.44094        -0.06167
C          4.88673         4.14945        -0.12413
C          6.13250         6.28085        -0.20569
C          4.88237         5.57748        -0.24771
C          6.17751         7.68989        -0.28991
C          4.92539         8.40136        -0.56689
C          6.23301        10.67922        -0.36913
C          4.91996         9.90167        -0.51258
C          6.14472        11.96303         0.42591
C          4.85201        12.69393         0.55183
C          6.09710        14.85956         0.64835
C          4.86583        14.17291         0.55826
C          6.09720        16.29285         0.65678
C          4.85866        17.00199         0.61769
C          6.07413        19.15214         0.46414
C          4.84750        18.44232         0.53124
C          6.09249        20.57489         0.24274
C          4.86445        21.24593         0.10485
C          6.15556        23.35878        -0.53947
C          4.83252        22.64639        -0.36487
C          6.14620        24.85186        -0.62765
C          4.82304        25.57759        -0.54909
C          6.13929        27.75419        -0.29062
C          4.84047        27.03131        -0.18142
C          6.10963        29.21607        -0.45873
C          4.88762        29.90949        -0.55040
C          6.11906        32.04106        -0.35226
C          4.91016        31.34139        -0.52985
C          6.12310        33.48622        -0.11081
C          4.86116        34.16809         0.06241
C          6.17288        36.33230         0.61508
C          4.86483        35.60044         0.41593
C          6.18909        37.79670         0.38364
C          4.95776        38.47373         0.30010
C          8.58824         3.37810        -0.08155
C          7.35942         4.09988        -0.09543
C          8.57499         6.25540        -0.08312
C          7.36444         5.55256        -0.11486
C          8.60702         7.67490         0.05730
C          7.38725         8.41243        -0.05951
C          8.59032        10.51675         0.44306
C          7.41859         9.83696         0.05682
C          8.58142        11.97142         0.62263
C          7.42072        12.71068         0.51968
C          8.57331        14.86917         0.76109
C          7.37389        14.15358         0.68850
C          8.58865        16.31636         0.79591
C          7.32260        17.03114         0.74571
C          8.51609        19.21086         0.88953
C          7.29462        18.43523         0.64534
C          8.57823        20.63615         0.49770
C          7.36665        21.29736         0.18171
C          8.60951        23.42495        -0.01794
C          7.40284        22.69106        -0.10554
C          8.62297        24.87927        -0.17014
C          7.41690        25.56103        -0.37787
C          8.68695        27.78975        -0.37422
C          7.39588        27.00596        -0.60033
C          8.56559        29.21664        -0.11484
C          7.35342        29.90640        -0.33863
C          8.59572        32.02894        -0.24404
C          7.34660        31.33226        -0.27437
C          8.55342        33.47864        -0.46872
C          7.31624        34.18262        -0.07954
C          8.67219        36.33037         0.06138
C          7.47892        35.54426         0.56310
C          8.66360        37.76457         0.09759
C          7.42143        38.45905         0.24549
C         11.07129         3.35369        -0.23490
C          9.83439         4.02584        -0.18297
C         11.12753         6.23607        -0.13593
C          9.82258         5.49956        -0.29685
C         11.09282         7.66909         0.25316
C          9.82676         8.38086         0.32643
C         11.03266        10.44329         1.07002
C          9.79548         9.76047         0.62932
C         11.07269        11.94175         1.18796
C          9.75213        12.69438         1.25244
C         11.03262        14.80893         0.67544
C          9.84529        14.15073         0.81626
C         11.06418        16.29123         0.38268
C          9.80329        16.99773         0.81844
C         11.10156        19.21021         0.98926
C          9.81643        18.44252         1.05794
C         11.08950        20.63942         0.60133
C          9.82538        21.32071         0.43472
C         11.07885        23.44419         0.22508
C          9.83519        22.73064         0.20573
C         11.08209        24.87191         0.19572
C          9.85730        25.59957         0.00593
C         11.02925        27.73859         0.42787
C          9.89219        27.03798         0.02761
C         11.01119        29.20136         0.65097
C          9.74007        29.95967         0.34358
C         11.08034        32.07380        -0.12867
C          9.80434        31.39277        -0.00368
C         11.11777        33.45725        -0.45594
C          9.84470        34.20750        -0.54674
C         11.06499        36.34250        -0.49421
C          9.84800        35.65705        -0.25763
C         11.07414        37.77719        -0.44400
C          9.86747        38.45784        -0.14582
C         13.58938         3.35199        -0.30351
C         12.32287         4.04448        -0.16610
C         13.60842         6.12602         0.25654
C         12.33622         5.42970         0.05937
C         13.57236         7.61669         0.29822
C         12.28247         8.33789         0.34166
C         13.55205        10.52523         0.41826
C         12.35127         9.74011         0.78080
C         13.58521        11.90303         0.52331
C         12.36207        12.65557         0.91823
C         13.54320        14.81251         1.11354
C         12.34891        14.09712         0.45317
C         13.56932        16.29826         0.76638
C         12.37470        16.97177         0.75027
C         13.61847        19.18248         0.59497
C         12.38465        18.44350         0.88874
C         13.58420        20.59082         0.47255
C         12.30740        21.30639         0.43470
C         13.53974        23.46531         0.25741
C         12.31905        22.74541         0.28821
C         13.54680        24.87323         0.38091
C         12.30597        25.55893         0.39001
C         13.58136        27.74816         0.83338
C         12.26749        26.99521         0.69992
C         13.59137        29.24789         0.72907
C         12.29254        30.00007         0.63946
C         13.53667        32.03137        -0.17019
C         12.30220        31.37791         0.07495
C         13.54837        33.38419        -0.65752
C         12.32168        34.13935        -0.73637
C         13.22347        36.38825        -1.52164
C         12.22864        35.61101        -0.91419
C         13.41342        37.79690        -1.23771
C         12.29253        38.46157        -0.69338
C         16.04365         3.34929        -0.69798
C         14.81510         4.00784        -0.31892
C         16.05179         6.15411        -0.11934
C         14.87448         5.44346        -0.08942
C         16.04882         7.62662        -0.36130
C         14.73713         8.35146        -0.26727
C         15.99458        10.58729        -0.39634
C         14.68285         9.84433        -0.23308
C         16.02145        11.99667         0.04368
C         14.81426        12.64047         0.36836
C         16.08266        14.85193         0.52844
C         14.83977        14.05929         0.81038
C         16.04302        16.33380         0.47870
C         14.83559        17.01818         0.66105
C         16.06131        19.17413         0.54507
C         14.83771        18.46152         0.57439
C         16.04694        20.60902         0.47585
C         14.80895        21.29034         0.35528
C         16.07361        23.47952         0.34993
C         14.82120        22.73983        -0.04578
C         16.05647        24.89547         0.41694
C         14.80833        25.61028         0.44340
C         16.04949        27.75037         0.46784
C         14.82941        27.01375         0.54018
C         16.04668        29.19354         0.35606
C         14.82889        29.92282         0.29941
C         16.04375        31.98744        -0.11453
C         14.79630        31.30587         0.00504
C         16.06157        33.35875        -0.51400
C         14.84165        33.96380        -0.95333
C         16.21593        35.84288        -1.72811
C         15.02426        35.13042        -1.71666
C         15.97959        38.04041        -1.50112
C         14.67082        38.50037        -1.22333
C         18.47066         3.41950        -1.19850
C         17.24579         4.02416        -0.74505
C         18.60803         6.21280        -0.38210
C         17.32427         5.42587        -0.26464
C         18.63329         7.73829        -0.15203
C         17.29058         8.43263        -0.37426
C         18.50171        10.58223        -0.52533
C         17.26369         9.81011        -0.43608
C         18.46769        12.01967        -0.44448
C         17.25797        12.69291        -0.11729
C         18.50676        14.94602        -0.31428
C         17.20134        14.15524        -0.16273
C         18.51525        16.35319         0.11815
C         17.28372        17.03780         0.33473
C         18.53430        19.14874         0.56660
C         17.30374        18.45808         0.49708
C         18.51635        20.60139         0.97811
C         17.27352        21.33717         0.54802
C         18.53395        23.48077         0.61719
C         17.28601        22.75801         0.49690
C         18.52976        24.90447         0.59153
C         17.28753        25.61967         0.51772
C         18.52736        27.77198         0.51156
C         17.28527        27.04566         0.48835
C         18.52713        29.19732         0.42199
C         17.28216        29.89862         0.28800
C         18.51534        32.03858         0.09246
C         17.27664        31.30902         0.10213
C         18.51355        33.44422        -0.15229
C         17.29047        34.08052        -0.53608
C         18.47525        36.28502        -0.73766
C         17.33895        35.43209        -0.99384
C         18.37322        37.72525        -0.73962
C         17.14131        38.47802        -0.85730
C         19.61111         4.15075        -1.40405
C         20.71264         6.33824        -1.67853
C         19.69478         5.56700        -1.15612
C         20.72415         7.76075        -1.55163
C         19.72734         8.45695        -0.91166
C         20.89123        10.67297        -1.02769
C         19.70731         9.91062        -0.82029
C         20.88993        12.04125        -0.89059
C         19.69859        12.76412        -0.58814
C         20.94989        14.90269        -0.17913
C         19.74759        14.17684        -0.37743
C         20.95390        16.26524         0.05778
C         19.75213        17.02597         0.21167
C         20.97630        19.19776         0.49512
C         19.76356        18.45372         0.45589
C         20.97358        20.59170         0.54311
C         19.79213        21.33520         0.66442
C         20.98039        23.51568         0.69674
C         19.77436        22.77058         0.66413
C         20.97358        24.89583         0.69921
C         19.76263        25.62506         0.64386
C         20.96256        27.81674         0.66848
C         19.75911        27.06992         0.61124
C         20.95962        29.19580         0.59545
C         19.75290        29.92100         0.45041
C         20.93631        32.13224         0.32364
C         19.74750        31.36361         0.30572
C         20.92112        33.50517         0.13066
C         19.71765        34.20118        -0.12545
C         20.80790        36.44718        -0.01616
C         19.67938        35.65176        -0.30626
C         20.72955        37.83831        -0.07352
C         19.52573        38.46475        -0.38274
O          5.38598        35.92645         1.78432
O         15.17830         7.86008        -1.56240
O         11.79721         9.83174         2.14515
O         13.78947         6.87820         1.54672
O         10.12735        29.63158         1.74424
O         15.84322        14.29615         1.87231
O          1.70862        27.53490         1.18055
O         11.93477        12.40769         2.28360
O          5.45637        25.33789        -1.84382
O         14.00083        35.72091        -2.47288
O         11.86980        18.92072         2.21019
O         17.57570        14.72131        -1.44551
O          1.52146        29.36473        -1.89397
O          1.63209        16.56829         2.01247
O         10.54149         6.00318        -1.48097
O          5.49442        22.74268        -1.68521
O          1.79410         7.93580        -2.13883
O         13.01889        29.90838         1.90936
O          5.48078        12.02436         1.71335
O          9.08459        33.90779        -1.79402
O          9.05396        18.89531         2.22400
O          5.60408        27.33345         1.03436
O         16.18672        37.02963        -2.46682
O         15.07320        10.41490        -1.52327
O          4.92190         9.26550        -1.82211
O          3.02412        31.93441        -2.00639
O          3.30630        10.94446         1.20796
O          8.17324        27.46261        -1.73465
O         18.27586         5.52796         0.87461
O         12.88477        27.28242         2.02099
O         14.87569        22.70774        -1.53731
H         15.69949        22.23526        -1.78544
O         18.44795        20.57670         2.46929
H         19.24357        20.09564         2.78327
O         11.07196        16.40232        -1.11436
H         10.21492        16.04467        -1.43560
O          2.86206        13.01450        -1.75034
H          2.12901        13.47010        -2.21624
O         18.94767         7.95167         1.25438
H         18.66502         7.13412         1.73099
O          7.84310        35.22125         1.94513
H          6.99384        35.19135         2.45005
O          6.57199        11.16561        -1.70298
H          6.31263        10.45333        -2.33529
O         12.57594        14.07169        -0.97780
H         12.27882        14.94228        -1.34248
O         13.33004        14.76702         2.53591
H         14.21519        14.79517         2.96486
O          9.39760        12.75945         2.66410
H         10.23609        12.92107         3.15617
H          1.21881         2.34243         0.12459
H         -0.95972         3.54365        -0.04080
H         -1.02036         5.97751        -0.48069
H         -1.07015         7.97061        -0.53243
H         -1.01584        10.37046        -0.59713
H         -1.01877        12.24787        -0.42624
H         -1.02756        14.61681         0.06752
H         -1.06799        16.56297         0.10411
H         -1.00828        18.96936         0.16705
H         -1.00964        20.83075         0.64692
H         -1.02272        23.24623         0.42698
H         -1.04564        25.02427        -0.29538
H         -1.12521        27.44258        -0.54164
H         -1.04790        29.55628         0.20045
H         -0.95297        31.98476         0.18416
H         -0.99394        33.86244        -0.57369
H         -0.93109        36.31610        -0.47250
H          0.35496        38.43948        -0.24713
H          3.65867         2.36857         0.06927
H          2.51171        39.62194         0.07233
H          6.09766         2.34261        -0.00489
H          4.96439        39.57172         0.22213
H          8.55379         2.27980        -0.02405
H          7.42176        39.55533         0.14577
H         11.07844         2.25399        -0.27139
H          9.86310        39.55768        -0.14143
H         13.56383         2.27109        -0.51016
H         12.35366        39.54075        -0.49161
H         16.00192         2.29272        -1.00399
H         14.63489        39.44478        -0.65341
H         18.45990         2.34855        -1.44980
H         17.10138        39.43063        -0.30480
H         20.49577         3.65854        -1.83541
H         21.51199         5.85549        -2.25911
H         21.54322         8.30544        -2.04318
H         21.83340        10.15904        -1.26247
H         21.83027        12.58879        -1.03956
H         21.91507        14.37959        -0.22346
H         21.92489        16.76621         0.16659
H         21.94064        18.68266         0.39936
H         21.93922        21.10638         0.44060
H         21.94646        22.99635         0.74446
H         21.93601        25.42165         0.74043
H         21.92750        27.30366         0.76984
H         21.92016        29.72563         0.63900
H         21.90449        31.64285         0.49424
H         21.87737        34.04497         0.15285
H         21.75131        35.98124         0.29728
H         21.61318        38.44402         0.17095
H         19.46459        39.56228        -0.36022
