         404
 CSIRO Nanostructure Databank - Neutral Graphene Oxide Data Set
C          1.18703         3.48320        -1.35544
C         -0.02420         4.14259        -1.24669
C          1.11819         6.24942        -0.75278
C         -0.06543         5.51371        -0.95223
C          1.08032         7.69529        -0.58047
C         -0.07993         8.42624        -0.36050
C          1.05849        10.57843         0.05180
C         -0.09771         9.81870        -0.07697
C          1.08602        12.00454         0.34887
C         -0.14782        12.73248         0.59215
C          1.05056        14.88098         0.48661
C         -0.17517        14.08223         0.69096
C          1.06645        16.38674         0.62729
C         -0.16411        17.14617         0.86928
C          1.12555        19.21987         0.86194
C         -0.11549        18.50026         0.96799
C          1.14146        20.64144         0.75287
C         -0.06428        21.39465         0.63511
C          1.18995        23.48003         0.46559
C         -0.03859        22.76001         0.50719
C          1.20606        24.90618         0.25082
C         -0.00220        25.66454         0.18224
C          1.18695        27.74760        -0.26477
C         -0.00649        27.03154        -0.02568
C          1.21686        29.16635        -0.44106
C          0.02289        29.88289        -0.71118
C          1.17764        32.01316        -0.47278
C          0.01561        31.26147        -0.76325
C          1.09257        33.48811        -0.39503
C         -0.01096        34.22970        -1.02182
C          1.28830        36.31391        -1.05475
C          0.06218        35.57210        -1.22579
C          1.34221        37.70586        -1.40643
C          3.63143         3.48323        -1.30514
C          2.41704         4.16534        -1.11023
C          3.60639         6.29452        -0.59680
C          2.37791         5.57144        -0.78402
C          3.63030         7.68993        -0.54596
C          2.35455         8.42258        -0.66281
C          3.59140        10.47357         0.22643
C          2.32643         9.90363        -0.28987
C          3.56009        11.97297         0.43667
C          2.29208        12.71964         0.36138
C          3.52736        14.84893         0.77790
C          2.34740        14.15527         0.57534
C          3.55586        16.28986         1.28723
C          2.33578        17.08089         0.89381
C          3.61485        19.20454         0.96360
C          2.35894        18.48159         0.90767
C          3.59939        20.60421         0.91897
C          2.38474        21.34156         0.74808
C          3.66257        23.48530         0.54919
C          2.41163        22.76747         0.59101
C          3.67903        24.88745         0.28937
C          2.44408        25.56899         0.08857
C          3.75608        27.77428        -0.17315
C          2.43494        26.98459        -0.30065
C          3.66280        29.23190        -0.01947
C          2.43824        29.90909        -0.26435
C          3.63414        32.08420        -0.01469
C          2.39996        31.34609        -0.21632
C          3.67111        33.49195        -0.14060
C          2.42088        34.25895        -0.22322
C          3.72960        36.32470        -0.72433
C          2.46477        35.65153        -0.68694
C          3.76545        37.72887        -1.09163
C          2.52803        38.38673        -1.40981
C          6.18170         3.48633        -1.30161
C          4.90226         4.02955        -0.87798
C          6.14751         6.29569        -0.56522
C          4.87622         5.56407        -0.45167
C          6.12887         7.71150        -0.41727
C          4.87200         8.41403        -0.34231
C          6.10136        10.47776         0.49480
C          4.86142         9.76965        -0.00071
C          6.10583        11.94048         0.08543
C          4.81981        12.71000         0.16521
C          6.11378        14.77774         0.87354
C          4.81237        14.18514         0.45858
C          6.10352        16.32102         1.12654
C          4.84451        17.04287         0.99638
C          6.12245        19.13769         0.93504
C          4.86979        18.45314         0.95879
C          6.15735        20.59741         1.14302
C          4.83911        21.37158         1.12887
C          6.11864        23.49266         0.80845
C          4.88598        22.80441         0.79638
C          6.13744        24.91989         0.66786
C          4.92584        25.61092         0.37267
C          6.10669        27.74932         0.62058
C          4.94803        27.03558         0.29021
C          6.02788        29.21529         0.74357
C          4.82726        29.95329         0.32851
C          6.11387        32.07346         0.20386
C          4.85007        31.36805         0.24345
C          6.12522        33.49329        -0.04784
C          4.91119        34.20906        -0.17080
C          6.16434        36.40647        -0.31535
C          4.90682        35.63703        -0.39454
C          6.21671        37.76319        -0.91190
C          4.97950        38.40298        -1.20585
C          8.63687         3.55543        -1.42870
C          7.37895         4.19722        -1.15040
C          8.58329         6.37977        -0.87448
C          7.34397         5.59562        -0.79244
C          8.58846         7.73566        -0.31838
C          7.37018         8.43226        -0.22878
C          8.61721        10.52842         0.29487
C          7.39016         9.81067         0.10283
C          8.61372        11.91274         0.51339
C          7.40708        12.68886         0.21554
C          8.59356        14.79934         0.79055
C          7.37243        14.11859         0.57347
C          8.56870        16.25161         0.81888
C          7.39301        16.98886         0.90347
C          8.57748        19.14919         0.74835
C          7.37191        18.44009         0.83214
C          8.58662        20.60585         0.57988
C          7.37017        21.36568         0.83934
C          8.62453        23.48868         0.95360
C          7.36990        22.76160         0.85640
C          8.60582        24.94485         1.04163
C          7.36454        25.64756         0.82918
C          8.59098        27.80925         0.88833
C          7.34866        27.06970         0.82798
C          8.61965        29.21504         0.69904
C          7.36630        29.99447         0.74294
C          8.57479        31.95907        -0.31260
C          7.32606        31.36644         0.27404
C          8.57714        33.46128        -0.14573
C          7.40860        34.16943        -0.10760
C          8.70153        36.29241        -0.65991
C          7.46775        35.65701        -0.14101
C          8.68351        37.65659        -1.11540
C          7.43651        38.36678        -1.18242
C         11.11679         3.57658        -1.57935
C          9.86948         4.20901        -1.36428
C         11.15450         6.31943        -0.80257
C          9.88554         5.67281        -1.15060
C         11.16680         7.62772        -0.15043
C          9.82962         8.36557         0.11173
C         11.10774        10.49584         0.43319
C          9.88294         9.82154         0.29940
C         11.12035        11.91666         0.68054
C          9.82623        12.60229         1.05900
C         11.07750        14.78022         0.94901
C          9.83224        14.09208         0.80727
C         11.08874        16.17852         0.97149
C          9.86742        16.93404         0.66419
C         11.08503        19.18649         1.08612
C          9.86984        18.45657         0.64888
C         11.12678        20.56491         1.09587
C          9.93341        21.36238         0.69192
C         11.03972        23.46101         1.50762
C          9.82766        22.78632         1.03083
C         11.03105        24.96754         1.60345
C          9.79544        25.67716         1.21813
C         11.04836        27.84517         1.07053
C          9.82441        27.10424         1.05185
C         11.06437        29.22068         0.83285
C          9.84205        29.91401         0.57601
C         11.04281        31.92967        -0.17175
C          9.85811        31.29023         0.14038
C         10.98769        33.31264        -0.60288
C          9.89517        34.18636        -0.06287
C         11.05580        36.09896        -1.29732
C          9.86708        35.53696        -0.74705
C         11.07653        37.48401        -1.65922
C          9.87889        38.24196        -1.56029
C         13.56627         3.68194        -1.85764
C         12.33615         4.29538        -1.54694
C         13.58387         6.41684        -1.02373
C         12.34890         5.68918        -1.12282
C         13.58498         7.79933        -0.61630
C         12.38887         8.43065        -0.20273
C         13.59643        10.49145         0.29968
C         12.37353         9.79838         0.19794
C         13.58846        11.87902         0.81645
C         12.31409        12.63436         0.79414
C         13.57382        14.77063         1.11066
C         12.33957        14.05109         1.01532
C         13.58358        16.19145         1.35646
C         12.27854        16.88686         1.46018
C         13.50657        19.11980         1.89958
C         12.22059        18.40190         1.62441
C         13.51877        20.58826         1.73410
C         12.35009        21.26138         1.45170
C         13.60220        23.50444         1.54331
C         12.34414        22.74668         1.32947
C         13.61771        24.98469         1.60645
C         12.33046        25.72095         1.64465
C         13.62729        27.87710         1.08966
C         12.33977        27.19241         1.40152
C         13.64683        29.24500         0.92041
C         12.34426        29.96737         0.87893
C         13.67019        31.86479        -0.20807
C         12.35405        31.34618         0.23312
C         13.80172        32.84343        -1.18260
C         11.94500        33.87138        -1.39710
C         13.47909        35.80675        -1.87640
C         12.20444        35.27870        -1.53253
C         13.48455        37.22951        -2.15595
C         12.30239        38.00916        -2.11565
C         16.00534         3.78539        -2.17959
C         14.78114         4.39951        -1.81513
C         16.00814         6.52170        -1.39981
C         14.78771         5.78465        -1.40388
C         16.01645         7.90101        -1.00034
C         14.80987         8.53398        -0.58830
C         16.06265        10.59712        -0.06889
C         14.82746         9.88058        -0.09484
C         16.20776        11.90344         0.69760
C         14.88320        12.62647         0.95853
C         16.02979        14.84060         0.83076
C         14.83749        14.10979         0.95886
C         16.03351        16.25903         1.07100
C         14.79176        16.89894         1.41284
C         16.08400        19.07203         1.65208
C         14.82437        18.32518         1.81392
C         16.10101        20.52064         1.95538
C         14.79348        21.29889         1.97965
C         16.03584        23.45408         1.78477
C         14.86310        22.77203         1.77823
C         16.04735        24.94947         2.01253
C         14.80203        25.64555         1.50732
C         16.16943        27.73944         1.00387
C         14.84412        27.00343         0.83117
C         16.15127        29.26276         1.03203
C         14.87713        30.02268         0.84742
C         16.09616        32.15923         0.15265
C         14.88397        31.35255         0.38170
C         16.13164        33.28225        -0.77244
C         14.89726        33.74749        -1.31471
C         15.99013        35.78856        -2.04192
C         14.75753        35.08717        -1.81125
C         15.92867        37.18565        -2.41553
C         14.69890        37.86752        -2.46861
C         18.44733         3.88234        -2.55572
C         17.20707         4.50100        -2.17439
C         18.43207         6.62627        -1.81188
C         17.21344         5.88647        -1.79161
C         18.44010         8.00752        -1.44513
C         17.22841         8.64208        -1.02094
C         18.45895        10.77164        -0.69378
C         17.23496        10.00393        -0.57676
C         18.45154        12.17749        -0.39956
C         17.28755        12.80463         0.14407
C         18.43566        14.97754         0.17953
C         17.25727        14.18243         0.39964
C         18.46307        16.35880         0.55863
C         17.24861        16.99742         1.01845
C         18.54495        19.13513         1.45466
C         17.25318        18.40667         1.33266
C         18.52859        20.61802         1.49652
C         17.34248        21.27430         1.66486
C         18.54743        23.42589         2.14160
C         17.33976        22.77602         1.47253
C         18.56408        24.92591         1.87913
C         17.36023        25.62612         1.70696
C         18.57304        27.74873         1.70370
C         17.36918        27.02902         1.50927
C         18.53979        29.19161         1.80666
C         17.32387        29.87073         1.64805
C         18.51726        32.48052         0.50554
C         17.24243        31.98833         0.91997
C         18.57475        33.30819        -0.66197
C         17.34752        33.91439        -1.15461
C         18.44512        35.86868        -2.39060
C         17.27327        35.15343        -1.90343
C         18.35042        37.26730        -2.71399
C         17.10457        37.91182        -2.66749
C         19.61509         4.59368        -2.56739
C         20.83880         6.72825        -2.22110
C         19.64048         5.98229        -2.20312
C         20.84205         8.07400        -1.88583
C         19.65578         8.74290        -1.50247
C         20.78595        10.96232        -1.41121
C         19.63464        10.16022        -1.18799
C         20.76829        12.31724        -1.17528
C         19.60908        12.95749        -0.66464
C         20.76104        15.15291        -0.56461
C         19.60459        14.36601        -0.35692
C         20.79388        16.47795        -0.17424
C         19.67540        17.08622         0.42339
C         20.94216        19.32605         0.61355
C         19.80356        18.45566         0.97471
C         20.94023        20.65728         0.87094
C         19.78019        21.36387         1.36880
C         21.02672        23.48537         1.73379
C         19.82067        22.72446         1.68857
C         21.01942        24.85240         1.90635
C         19.80315        25.61327         1.91142
C         20.95926        27.80084         2.27739
C         19.80158        27.05474         1.95319
C         20.92777        29.19541         2.39155
C         19.74024        29.88669         2.15991
C         20.95727        32.19979         0.47339
C         19.72761        31.98896         1.08232
C         21.00138        32.87001        -0.76168
C         19.83613        33.40628        -1.30169
C         20.80987        36.01158        -3.12648
C         19.71402        35.28640        -2.66751
C         20.70783        37.40098        -3.33075
C         19.49157        38.01621        -3.13049
O          1.50421        34.02605         0.89958
O          6.07803        15.33951         2.23026
O         12.34096        31.16159         1.70342
O          6.61100        29.73935         1.97364
O         10.51598         7.59870         1.17284
O          4.74806        13.67186        -0.92047
O         10.03147        17.69557        -0.60895
O          2.41155         9.48807        -1.68405
O          1.01723        15.70872        -0.73953
O         13.09245        23.17464         0.14015
O         16.51877        28.50612        -0.20693
O         19.46337        18.51485         2.41134
O         11.88983        17.52547         2.75129
O          5.50538        21.03408         2.39209
O         12.33737        26.66062         2.79118
O          9.19603         6.40010        -2.25358
O          3.27435        27.29134        -1.46896
O          4.87684         4.51390         0.52085
O         14.23767        12.04110         2.15095
O          9.36304        21.02384        -0.60282
O         12.77136        32.99520        -2.11398
O          6.84202        36.31960         0.99975
O         15.46726        20.90447         3.22494
O          6.83950        12.26490        -1.11031
O         19.70980        31.28050         2.30876
O          3.54355        11.05479         1.57904
O         14.16165        18.62173         3.09147
O         17.20389        31.18644         2.08388
O         10.88076        24.11878         2.80396
O         19.91460        33.90155        -2.60554
O         15.96567        25.10619         3.47693
H         15.22917        24.54959         3.80965
O          3.49158        16.16746         2.75891
H          4.36882        15.81105         3.04320
O          9.73605        12.45996         2.53312
H         10.57934        12.78890         2.91319
O          8.51730        31.71688        -1.77319
H          7.68648        32.11962        -2.10494
O         16.73318        11.50426         2.00299
H         15.94673        11.33953         2.57629
O         10.17089        34.43122         1.34994
H          9.41948        34.94384         1.71775
O         18.41745        23.22783         3.56759
H         19.16279        23.68155         4.01203
O         17.52303        23.01732         0.03902
H         16.68777        22.79833        -0.42558
O          6.06753        10.50039         1.95938
H          5.97991         9.57859         2.28031
O         14.74787        26.65226        -0.58884
H         15.25018        27.34407        -1.08161
H          1.21586         2.41459        -1.61154
H         -0.96367         3.59846        -1.41657
H         -1.03946         6.01964        -0.91964
H         -1.04831         7.90660        -0.34324
H         -1.07945        10.27876         0.10221
H         -1.08375        12.16784         0.70419
H         -1.13185        14.59910         0.85051
H         -1.13037        16.62400         0.88831
H         -1.05291        19.05356         1.11150
H         -1.03580        20.88464         0.62983
H         -0.99216        23.29367         0.40753
H         -0.96619        25.16736         0.34710
H         -0.96700        27.56396         0.00116
H         -0.91212        29.33823        -0.89700
H         -0.92975        31.77734        -0.97679
H         -0.91638        33.68953        -1.33192
H         -0.80242        36.10502        -1.64887
H          0.40704        38.21743        -1.67652
H          3.61986         2.50711        -1.81290
H          2.55599        39.45321        -1.67631
H          6.19386         2.50516        -1.79866
H          4.99053        39.44101        -1.57076
H          8.61924         2.48237        -1.67388
H          7.44521        39.39430        -1.57669
H         11.14108         2.49907        -1.80223
H          9.88299        39.29755        -1.86989
H         13.57911         2.62578        -2.16582
H         12.36587        39.07079        -2.39750
H         16.00448         2.72814        -2.48421
H         14.69697        38.94108        -2.70723
H         18.43946         2.82044        -2.84176
H         17.03757        38.98444        -2.89921
H         20.55783         4.10998        -2.86229
H         21.77724         6.23387        -2.51085
H         21.79672         8.61561        -1.91390
H         21.70505        10.50989        -1.80494
H         21.67777        12.89480        -1.38292
H         21.66544        14.71552        -1.00447
H         21.72570        17.04206        -0.30652
H         21.83718        18.87839         0.16013
H         21.84012        21.23887         0.62587
H         21.99482        22.97814         1.61423
H         21.98201        25.38095         1.93683
H         21.90521        27.28111         2.47989
H         21.83667        29.74711         2.66454
H         21.87151        31.78885         0.92019
H         21.94531        32.95843        -1.31390
H         21.74728        35.48255        -3.34038
H         21.57969        37.97342        -3.67484
H         19.36727        39.08966        -3.33014
