         429
 CSIRO Nanostructure Databank - Neutral Graphene Oxide Data Set
C          1.39795         3.49531        -2.05360
C          0.34404         4.04419        -2.77083
C          1.52065         6.15705        -2.80615
C          0.42295         5.37994        -3.18346
C          1.44157         8.43023        -2.41096
C          0.25599         9.17156        -2.46980
C          1.16715        10.73197        -0.85487
C          0.09730        10.28528        -1.64992
C          1.04727        11.99626        -0.09111
C         -0.15971        12.84510        -0.14906
C          1.10884        14.89613         0.37841
C         -0.12747        14.15474         0.20516
C          1.11597        16.30271         0.46406
C         -0.01202        17.03390         0.94337
C          1.08237        19.21803         0.55726
C         -0.02370        18.39359         1.06876
C          1.11331        20.68677         0.83064
C         -0.09923        21.40714         0.79979
C          1.11996        23.51088         0.73510
C         -0.09483        22.79066         0.78013
C          1.12825        24.94846         0.52566
C         -0.06528        25.70249         0.45175
C          1.15104        27.72253        -0.17364
C         -0.05236        27.04799         0.11589
C          1.15227        29.14035        -0.75906
C         -0.11352        29.93145        -0.53137
C          1.13257        32.05040        -0.37460
C         -0.12183        31.27024        -0.45826
C          1.13072        33.50863         0.02186
C         -0.11769        34.30762         0.03789
C          1.09219        36.21983         0.95002
C         -0.06432        35.63732         0.31322
C          1.22236        37.65184         1.14342
C          3.67578         3.62068        -1.16191
C          2.52136         4.27777        -1.69924
C          3.69159         6.48293        -1.49601
C          2.57336         5.67213        -1.99684
C          3.65468         7.87866        -1.31887
C          2.50123         8.74342        -1.52975
C          3.61421        10.68174        -0.44233
C          2.39787        10.01294        -0.85758
C          3.61262        12.04849        -0.12623
C          2.36038        12.73033         0.21567
C          3.59223        14.87176         0.39935
C          2.35540        14.19631         0.30141
C          3.62687        16.32861         0.41116
C          2.36164        17.00552        -0.06476
C          3.63903        19.35933         0.03144
C          2.32472        18.53647         0.06070
C          3.57924        20.50333         1.07630
C          2.33450        21.36702         0.89644
C          3.58722        23.52931         0.74427
C          2.35254        22.79354         0.82365
C          3.60293        24.89690         0.45034
C          2.36015        25.62541         0.31276
C          3.64944        27.66078        -0.32974
C          2.35417        26.99939        -0.06248
C          3.67653        29.19233        -0.40702
C          2.39129        29.92967        -0.34575
C          3.67437        32.08883        -0.14730
C          2.38374        31.27655        -0.17125
C          3.55001        33.43007         0.59047
C          2.31948        34.03809         0.76837
C          3.83961        36.40658         0.28112
C          2.07253        35.33258         1.43946
C          3.70470        37.79544         0.81660
C          2.39973        38.35879         1.09634
C          6.09000         3.50146        -0.62322
C          4.84584         4.30230        -0.95956
C          6.07720         6.41451        -0.74879
C          4.87562         5.74450        -1.05231
C          6.11407         7.82462        -0.66709
C          4.77962         8.49508        -0.49647
C          6.07546        10.67770        -0.46953
C          4.86253         9.99297        -0.55174
C          6.08467        12.09578        -0.22585
C          4.83254        12.76441         0.00060
C          6.07616        14.78060         0.68426
C          4.80860        14.13239         0.34939
C          6.05985        16.29974         0.85069
C          4.80148        17.02019         0.54182
C          6.15628        19.17341         0.68943
C          4.89380        18.48214         0.26887
C          6.16209        20.63491         0.92465
C          4.86760        21.31898         1.11521
C          6.13372        23.48830         0.65497
C          4.86035        22.82471         0.99700
C          6.09286        24.85103         0.33466
C          4.86851        25.58608         0.29636
C          6.11989        27.70691        -0.02972
C          4.89982        26.97167         0.00611
C          6.11223        29.15328         0.01321
C          4.91302        29.86242        -0.02777
C          6.13921        32.01526         0.34070
C          4.82800        31.27833         0.47901
C          6.13049        33.35941         0.59116
C          4.86992        34.07290         0.90864
C          6.21425        36.33950         0.82276
C          4.95615        35.59134         0.91588
C          6.19096        37.76106         0.67206
C          4.90757        38.45817         0.85940
C          8.62417         3.54223        -0.78957
C          7.33737         4.26944        -1.06607
C          8.59397         6.40681        -0.55772
C          7.31156         5.63359        -0.36851
C          8.58325         7.81412        -0.54003
C          7.32525         8.52934        -0.54042
C          8.55811        10.66840        -0.55289
C          7.35106         9.96797        -0.51774
C          8.51880        12.17226        -0.77762
C          7.29915        12.80901        -0.17130
C          8.56508        14.86211         0.36303
C          7.34901        14.14579         0.29090
C          8.56343        16.26500         0.72520
C          7.36470        16.97187         0.79958
C          8.64243        19.13516         1.35168
C          7.34076        18.39534         1.16005
C          8.64940        20.66517         1.42359
C          7.34851        21.32796         0.98127
C          8.61210        23.40960         0.60370
C          7.36925        22.76520         0.78086
C          8.64412        24.78942         0.10953
C          7.33078        25.54610        -0.04707
C          8.59182        27.69870         0.02973
C          7.36116        27.01646         0.00361
C          8.59686        29.13831         0.08024
C          7.37480        29.85461         0.12482
C          8.60995        31.97760         0.11117
C          7.38906        31.28337         0.17361
C          8.57941        33.47650        -0.05272
C          7.41872        34.09251         0.70370
C          8.74748        36.32441         0.75260
C          7.45849        35.58455         0.91708
C          8.70605        37.84905         0.53499
C          7.37441        38.47846         0.46492
C         11.04928         3.53646        -0.42266
C          9.79907         4.22509        -0.62809
C         11.03348         6.39594        -0.60153
C          9.81450         5.69805        -0.61206
C         11.04269         7.81216        -0.50271
C          9.81408         8.53186        -0.50322
C         11.05062        10.65966        -0.52752
C          9.81779         9.96951        -0.52839
C         11.04760        12.13260        -0.90940
C          9.81084        12.87842        -0.43279
C         11.05285        14.95446         0.18352
C          9.81300        14.19515         0.00405
C         11.06061        16.26362         0.60446
C          9.82213        16.99979         0.81425
C         11.08242        19.14679         0.68977
C          9.85787        18.37786         1.01649
C         11.11476        20.62291         0.81391
C          9.90003        21.32533         0.89960
C         11.10856        23.44021         0.60066
C          9.87330        22.72743         0.72770
C         11.10000        24.86990         0.44998
C          9.88279        25.56849         0.24246
C         11.07528        27.69158         0.10336
C          9.84239        26.97418         0.10513
C         11.07242        29.14178        -0.01886
C          9.83582        29.85136         0.06320
C         11.08805        31.99744         0.02402
C          9.84343        31.27800         0.05669
C         11.08574        33.42835         0.13155
C          9.90177        34.16863         0.18644
C         11.15222        36.31437         0.20719
C          9.94588        35.58313         0.35404
C         11.13969        37.75508         0.04395
C          9.93058        38.45595         0.01843
C         13.47384         3.52274        -0.13736
C         12.25954         4.20195        -0.41550
C         13.53693         6.38061        -0.33992
C         12.32187         5.64975        -0.85325
C         13.49463         7.76946        -0.18896
C         12.28530         8.52332        -0.36001
C         13.52420        10.67917        -0.24916
C         12.28079         9.95076        -0.37945
C         13.55714        12.06747        -0.31153
C         12.34521        12.85984        -0.58955
C         13.60523        14.87655         0.38444
C         12.34215        14.28927        -0.12628
C         13.62434        16.25043         0.73716
C         12.33636        16.95817         1.05654
C         13.64806        19.15040         0.77926
C         12.38123        18.40678         0.61768
C         13.62372        20.59098         0.79822
C         12.34959        21.31461         0.75584
C         13.58007        23.48728         0.79114
C         12.34612        22.74385         0.72593
C         13.56670        24.87165         0.66146
C         12.33042        25.59052         0.46289
C         13.53499        27.78078         0.21394
C         12.28429        26.99701         0.27919
C         13.49556        29.05966        -0.58577
C         12.26680        29.85396        -0.21397
C         13.56259        31.94856        -0.33634
C         12.30425        31.27125        -0.15518
C         13.64684        33.38465        -0.02593
C         12.35799        34.15040         0.28868
C         13.60567        36.29324        -0.02969
C         12.38517        35.61211         0.12080
C         13.60598        37.72849        -0.12853
C         12.40866        38.41417        -0.13993
C         15.87268         3.48233         0.33885
C         14.69255         4.19888        -0.00335
C         15.95975         6.31984         0.15705
C         14.73473         5.64933        -0.07842
C         16.00474         7.74269         0.20185
C         14.72464         8.46047         0.23146
C         16.07961        10.64276        -0.00073
C         14.76321         9.97947         0.16007
C         16.00957        12.05095        -0.12336
C         14.77775        12.76286        -0.04658
C         16.05782        14.77559         0.84496
C         14.79379        14.14901         0.29092
C         16.08899        16.27806         0.68848
C         14.84058        16.96938         0.78155
C         16.10796        19.09036         0.89517
C         14.84808        18.41604         0.84168
C         16.07984        20.54449         1.11288
C         14.81587        21.28156         0.97856
C         16.12291        23.40220         0.64555
C         14.85682        22.77196         1.22975
C         16.13851        24.87819         0.53760
C         14.85271        25.62624         0.68492
C         15.99906        27.68341        -0.39301
C         14.83339        27.08152         0.32820
C         16.02012        29.15804        -0.50925
C         14.79423        29.82412        -0.50008
C         15.99677        31.92679        -0.94178
C         14.74899        31.23996        -0.57604
C         15.99581        33.47090        -0.92728
C         14.81958        34.16726        -0.39819
C         16.08539        36.25741        -0.38298
C         14.83790        35.55524        -0.22334
C         16.12337        37.68394        -0.60999
C         14.92274        38.48185        -0.11364
C         18.23638         3.41605         1.05600
C         17.07267         4.13483         0.61699
C         18.33147         6.23815         0.81197
C         17.15275         5.56954         0.49354
C         18.50973         7.69550         0.46652
C         17.20883         8.45965         0.33949
C         18.59381        10.48968         0.44541
C         17.27916         9.87158         0.19753
C         18.91513        11.79822         0.04278
C         17.16918        12.89806        -0.28659
C         18.58425        14.81191         0.38633
C         17.29804        14.14153         0.27276
C         18.57626        16.23585         0.50873
C         17.30877        16.96185         0.61243
C         18.58223        19.11986         0.61470
C         17.32315        18.40170         0.72997
C         18.61532        20.54066         0.57907
C         17.38849        21.30106         0.89303
C         18.52176        23.33082        -0.13855
C         17.28857        22.72383         0.49891
C         18.51748        24.84555        -0.17514
C         17.35244        25.53705         0.00187
C         18.53806        27.69663        -0.62705
C         17.28413        26.93732        -0.46155
C         18.51561        29.08890        -0.68475
C         17.28132        29.83700        -0.63784
C         18.49498        31.97721        -1.09585
C         17.28709        31.24204        -0.83850
C         18.48424        33.41432        -1.20734
C         17.29275        34.12729        -0.83080
C         18.78913        36.42875        -1.44725
C         17.26243        35.47263        -0.41924
C         18.24683        37.61910        -1.97960
C         17.12690        38.29572        -1.34075
C         19.36626         4.08280         1.44330
C         20.51904         6.22422         1.91532
C         19.43893         5.51534         1.36937
C         20.51899         7.63675         1.95811
C         19.53043         8.39160         1.34504
C         20.64433        10.60741         1.77847
C         19.58555         9.83294         1.23574
C         20.74141        11.98081         1.57422
C         19.86114        12.62803         0.67649
C         21.00969        14.82805         0.62483
C         19.80994        14.08928         0.50214
C         21.01203        16.20995         0.57998
C         19.80000        16.94281         0.52826
C         20.99670        19.12014         0.29215
C         19.80229        18.40081         0.48097
C         21.00931        20.51095         0.24273
C         19.82340        21.24526         0.38421
C         21.00022        23.45185        -0.15873
C         19.81755        22.76872         0.49274
C         20.94026        24.71732        -0.63451
C         19.73694        25.53268        -0.57001
C         20.93974        27.66728        -1.15637
C         19.75412        26.92629        -0.75342
C         20.95554        29.01762        -1.21065
C         19.82594        29.85329        -0.65991
C         20.86688        31.97831        -1.60573
C         19.73498        31.27767        -1.19490
C         20.79916        33.33969        -1.95360
C         19.64600        34.09097        -1.71943
C         20.03811        35.93827        -3.42179
C         19.55169        35.49707        -2.17855
C         19.69388        37.21416        -3.89637
C         18.78061        38.02884        -3.22399
O          3.42485        36.08124        -0.82317
O          8.00088        24.95708        -1.21177
O          1.34745        19.03190        -0.90735
O         15.70720        25.42953         1.87096
O         11.67040        18.70952        -0.61421
O          4.88880        22.15634         2.32868
O          5.92333        18.80147        -0.73207
O         13.20888        33.65305         1.36667
O         14.32617        27.89710         1.43768
O         18.47623        36.10632        -0.11037
O          7.86342        18.62132         2.50496
O          6.01687        15.40082         2.01460
O          7.62703        34.60793         2.03976
O         12.53145        13.94925        -1.56413
O         16.34611        26.99996        -1.64339
O         16.90817        21.02194         2.24567
O         18.21823        12.35784        -1.04129
O          1.59896         7.43469        -3.38213
O          1.61582        11.99246         1.25393
O          1.39525        33.09160        -1.38702
O         15.81310        32.71969        -2.17425
O          8.96551        37.22670         1.86878
O          4.89317        34.80531         2.18088
O          3.76542        28.35838        -1.62388
O         14.58313         9.28307         1.44751
O          8.33047        12.34105        -2.22940
H          9.21020        12.13627        -2.64251
O         19.10500         7.70765        -0.88797
H         19.94883         7.20997        -0.83626
O          1.21917        28.96589        -2.20296
H          2.13281        28.64566        -2.40964
O         13.33636        28.65521        -1.98009
H         13.39454        29.45688        -2.54088
O         19.84293        23.10621         1.90085
H         19.12957        22.60447         2.35069
O          8.24578        33.73667        -1.46097
H          8.81724        33.16950        -2.02041
O         12.25345        17.02217         2.51871
H         12.39662        16.12041         2.87575
O          8.69428        21.00976         2.84654
H          8.14885        20.33498         3.31595
O         18.49318        22.89178        -1.52684
H         19.23873        23.32679        -1.99306
O          7.22362         4.45168        -2.50275
H          8.02064         4.93160        -2.81128
O         10.97704        12.09581        -2.38089
H         11.39313        12.93828        -2.68749
O          3.46941        19.84434         2.36213
H          3.69379        20.51552         3.04572
O          3.76184        20.00655        -1.23460
H          3.95930        19.33129        -1.91619
O          2.34930        16.74461        -1.50678
H          1.68834        17.37162        -1.88476
O         20.14022        30.04556         0.76923
H         20.21504        29.15608         1.17633
O          2.62310        35.67673         2.61197
H          3.37790        35.08347         2.86066
O          6.05166         2.23061        -1.27567
H          6.18041         2.40313        -2.23283
O         14.92135        22.94662         2.67442
H         15.16521        23.89276         2.83058
O         14.76706        39.71892        -0.79964
H         15.46439        40.33585        -0.50214
O          4.51004        31.19563         1.90445
H          5.29295        30.83608         2.37249
O         12.48448         5.60866        -2.31816
H         11.74883         5.06856        -2.67707
O          4.03221        32.35932        -1.51602
H          3.24424        32.78714        -1.93248
O          4.39418         8.20371         0.90924
H          4.92420         8.79165         1.48861
O         16.01926        14.51989         2.29646
H         16.79390        14.97285         2.69257
O          7.21703         5.34687         1.06293
H          7.15872         6.20453         1.53395
H          1.38927         2.43010        -1.78343
H         -0.51878         3.42720        -3.05616
H         -0.35440         5.81963        -3.82135
H         -0.53664         8.86920        -3.16578
H         -0.84664        10.84521        -1.67784
H         -1.12213        12.38961        -0.42404
H         -1.06802        14.72456         0.19552
H         -0.87020        16.46366         1.32894
H         -0.87364        18.89009         1.55716
H         -1.05455        20.86654         0.75313
H         -1.05563        23.31931         0.73396
H         -1.03510        25.22438         0.64210
H         -1.01183        27.57820         0.05473
H         -1.07565        29.40271        -0.59347
H         -1.07900        31.81021        -0.40906
H         -1.02078        33.86934        -0.40639
H         -0.94305        36.27740         0.14704
H          0.28690        38.23226         1.21441
H          3.65556         2.52817        -1.03710
H          2.35869        39.44634         1.26578
H          6.13960         3.31479         0.47907
H          4.94396        39.52954         1.11163
H          8.62235         2.44162        -0.81354
H          7.32156        39.56664         0.31304
H         11.02328         2.45170        -0.23646
H          9.91261        39.50553        -0.31111
H         13.44296         2.43668         0.04138
H         12.42238        39.50939        -0.23890
H         15.81763         2.38712         0.43138
H         15.13684        38.71101         0.98007
H         18.18595         2.31942         1.12210
H         16.96581        39.34740        -1.63095
H         20.23488         3.53050         1.83073
H         21.34478         5.67219         2.38622
H         21.33828         8.13608         2.49515
H         21.38840        10.12072         2.42372
H         21.51488        12.55636         2.10205
H         21.96349        14.28957         0.71598
H         21.97440        16.73550         0.62915
H         21.95050        18.58894         0.17834
H         21.97266        21.02303         0.11911
H         21.96660        22.92823        -0.19170
H         21.85624        25.16785        -1.04466
H         21.83143        27.10819        -1.47542
H         21.87679        29.52164        -1.53654
H         21.83648        31.46919        -1.69184
H         21.69412        33.83344        -2.35796
H         20.65665        35.27330        -4.04085
H         20.08933        37.54382        -4.86719
H         18.43860        38.96645        -3.68455
