         228
 CSIRO Nanostructure Databank - Neutral Graphene Oxide Data Set
C        -11.05723         0.68532         1.08160
C         -9.81168         1.34107         0.52997
C         -8.55785         0.72999         1.10386
C         -7.35072         1.41002         1.13929
C         -6.10932         0.68468         0.98777
C         -4.74377         1.35138         1.06136
C         -3.64871         0.65485         0.25386
C         -2.54138         1.38592        -0.16793
C         -1.25636         0.71670        -0.38545
C         -0.18036         1.42462        -1.09881
C          1.15137         0.76486        -1.31226
C          2.42910         1.49997        -1.04745
C          3.64066         0.77765        -0.82251
C          4.80470         1.42084        -0.32214
C          6.07829         0.77601        -0.34987
C          7.23073         1.37844         0.13659
C          8.60476         0.90841        -0.29538
C          9.74042         1.48153         0.55291
C         10.97279         0.71990         0.71015
C         -9.77166         2.84293         0.48206
C         -8.61839         3.55677         0.64673
C         -7.41023         2.92811         1.33038
C         -6.10048         3.64533         0.99936
C         -4.79668         2.87145         0.86045
C         -3.70742         3.55152         0.13423
C         -2.61579         2.80456        -0.36723
C         -1.61884         3.43886        -1.14921
C         -0.46655         2.67246        -1.57992
C          1.52826         3.79596        -1.63817
C          2.50127         2.95221        -1.04977
C          3.61525         3.60443        -0.41316
C          4.60598         2.75535         0.35413
C          5.90071         3.47019         0.61857
C          7.12389         2.70113         0.77988
C          8.37771         3.45433         1.21768
C          9.66917         2.74238         1.05730
C         -8.57201         4.95517         0.28577
C         -7.39767         5.68498         0.19972
C         -6.12888         5.02947         0.47582
C         -4.93466         5.69262         0.25505
C         -3.70693         4.96025         0.03961
C         -2.57866         5.62605        -0.54589
C         -1.67947         4.84921        -1.27718
C          0.30613         5.97479        -1.50926
C          1.51549         5.20288        -1.43161
C          2.66330         5.81336        -0.86118
C          3.72087         4.99535        -0.36843
C          4.70353         5.66869         0.51579
C          5.87782         4.85157         1.05115
C          7.12410         5.59934         1.35529
C          8.31662         4.92759         1.34471
C         -7.38592         7.04519        -0.30406
C         -6.22188         7.77269        -0.42417
C         -4.95484         7.15817         0.02552
C         -3.67000         7.88765        -0.20846
C         -2.40141         7.08860        -0.26992
C         -1.11630         7.84679        -0.39618
C          0.15421         7.13118        -0.75480
C          1.31987         7.63959        -0.14272
C          2.58511         7.18512        -0.47187
C          3.80636         7.96903        -0.22134
C          4.92394         7.13823         0.35085
C          5.93278         7.77802         1.22486
C          7.00162         7.02856         1.64446
C         -6.14142         9.11218        -0.96050
C         -4.95925         9.78174        -1.16494
C         -3.66476         9.21937        -0.85877
C         -2.46431         9.88227        -1.03467
C         -1.17116         9.34401        -0.64018
C         -0.07474        10.19268        -0.57972
C          1.24588         9.81895        -0.07174
C          2.49985        10.26309        -0.36419
C          3.82862         9.52348        -0.09715
C          4.59988         9.88568         1.17130
C          5.63533         9.14551         1.64494
C        -11.08890        -0.64418         1.31732
C         -9.88260        -1.47395         1.26369
C         -8.60437        -0.70749         1.33071
C         -7.31065        -1.46630         1.06629
C         -6.13090        -0.67697         0.73999
C         -5.03123        -1.35820         0.02609
C         -3.69655        -0.75009        -0.00920
C         -2.58363        -1.50369        -0.43749
C         -1.28388        -0.83313        -0.43685
C         -0.09902        -1.51623        -0.92944
C          1.14503        -0.74133        -1.14410
C          2.42213        -1.40117        -0.75767
C          3.69936        -0.67735        -0.93450
C          4.88862        -1.37389        -0.85683
C          6.17635        -0.59153        -1.00419
C          7.39428        -1.36367        -0.53826
C          8.66168        -0.61022        -0.47042
C          9.91549        -1.36490        -0.09491
C         11.05682        -0.60431         0.46120
C         -9.88460        -2.83663         1.27482
C         -8.59367        -3.65311         1.33826
C         -7.52808        -2.85988         0.49094
C         -6.25326        -3.61947         0.25405
C         -5.13166        -2.82161        -0.28116
C         -3.92396        -3.52695        -0.74604
C         -2.65083        -2.90633        -0.82362
C         -1.38460        -3.66298        -0.93184
C         -0.10677        -2.93024        -0.85026
C          1.13082        -3.59879        -0.72227
C          2.42163        -2.87888        -0.64217
C          3.68818        -3.64501        -0.96152
C          4.94679        -2.82133        -0.75187
C          6.13816        -3.48613        -0.55381
C          7.38407        -2.73948        -0.40983
C          8.59707        -3.46148        -0.02089
C          9.77851        -2.79144         0.20372
C         -8.60204        -5.03938         0.76768
C         -7.32441        -5.82812         0.90608
C         -6.18750        -4.99456         0.28110
C         -5.11357        -5.68125        -0.37589
C         -4.19075        -4.89120        -1.05818
C         -2.33846        -5.98663        -1.35260
C         -1.27772        -5.07000        -1.02524
C         -0.10477        -5.74748        -0.44155
C          1.15075        -4.95040        -0.19220
C          2.45693        -5.62561         0.12332
C          3.72768        -4.98230        -0.24982
C          4.90265        -5.67542        -0.16563
C          6.17594        -5.00590        -0.64278
C          7.40088        -5.63616        -0.01483
C          8.53051        -4.88688         0.20980
C         -7.36358        -7.22571         0.31895
C         -6.23378        -7.88982        -0.04119
C         -4.89746        -7.16678        -0.06134
C         -3.82893        -7.96250        -0.88887
C         -2.46870        -7.27555        -0.89389
C         -1.22301        -8.04026        -0.69703
C          0.03413        -7.23160        -0.59674
C          1.27744        -7.91956        -0.14885
C          2.46758        -7.12539         0.29673
C          3.75274        -7.82852         0.24416
C          4.93143        -7.09639         0.14799
C          6.20105        -7.77904         0.27800
C          7.38121        -7.04473         0.25581
C         -6.20591        -9.33804        -0.17354
C         -5.03564       -10.03090        -0.16931
C         -3.74108        -9.37230        -0.29248
C         -2.58856       -10.02256         0.04310
C         -1.23901        -9.46364        -0.22759
C          0.03003       -10.03399         0.29301
C          1.23245        -9.35635         0.24475
C          2.51383        -9.95583         0.53499
C          3.72406        -9.26020         0.44026
C          5.00548        -9.90740         0.59336
C          6.17526        -9.20091         0.52123
O          1.20052        -0.12542        -2.49259
O         -0.79416         5.45246        -2.18593
O         -3.41854        -5.45983        -2.06253
O          0.17398        -5.20972         0.88536
O         -4.30502         1.12679         2.43266
H         -4.54313         1.92875         2.95235
O          3.62020        -3.95513        -2.38531
H          4.42564        -4.48511        -2.60162
O          1.19861         8.68326         0.76896
O          2.39184        -6.24240         1.45407
O         -5.55649        -1.79581        -1.30814
O          9.61955        -1.01548        -1.51597
O          7.55976         2.75407         2.21346
O          0.47913         3.29709        -2.41065
O         -9.79111         0.93800        -0.89237
H         -9.00494         1.34906        -1.31022
O          1.03344        -7.64232        -1.58270
O         -4.29327         7.90857         1.11832
O          2.42556        -2.04877         0.57302
O         -5.14340         3.54658         2.11819
O          4.69436         5.22690         1.89875
O         -0.89859        -0.07843         0.77761
O          6.37688        -0.35539        -2.43442
H          6.40333        -1.22773        -2.88031
O         -1.57339         7.38377         0.91750
O         -1.11461        -9.12499        -1.68428
O          4.92439         7.50843        -1.06672
O         -6.93125        -6.03070         2.29362
H         -7.25018        -5.23674         2.79651
O         -8.17040        -3.72695         2.71444
H         -8.07315        -2.79887         3.04963
O          8.81339         1.49960        -1.61274
H          9.26721         0.81537        -2.15792
O         -7.75639        -1.18670         2.43367
O          3.99577         2.48418         1.67104
H          3.98199         3.34307         2.15619
O         -4.32749        -8.07141        -2.23406
H         -3.63639        -8.50565        -2.77663
O         -4.40678        -7.15506         1.30393
H         -5.14350        -6.83037         1.87988
O         -7.65055         3.13469         2.74703
H         -6.77152         3.16827         3.18807
O         -8.13686        -2.66174        -0.81048
H         -7.42597        -2.31412        -1.40319
O          4.67749        10.02151        -1.15995
H          5.29836         9.29205        -1.39936
O          6.23795        -5.30186        -2.08824
H          7.11672        -5.00756        -2.41087
H         11.98600        -1.15252         0.67753
H         11.83537         1.24744         1.14668
H         10.55519         3.18640         1.54108
H          9.26246         5.47732         1.46683
H          7.79496         7.49834         2.24615
H          6.25572         9.55813         2.45661
H          4.44436        10.89320         1.58646
H          2.61162        11.13899        -1.02103
H         -0.21965        11.23484        -0.90998
H         -2.48457        10.91560        -1.41795
H         -4.99008        10.79696        -1.58891
H         -7.08524         9.60925        -1.23184
H         -8.34521         7.49040        -0.61014
H         -9.51674         5.43074        -0.02122
H        -10.65020         3.34705         0.04652
H        -11.97757         1.28333         1.15581
H        -12.03426        -1.13208         1.60097
H        -10.84653        -3.37290         1.28077
H         -9.15112        -5.17039        -0.17997
H         -8.30968        -7.78334         0.40815
H         -7.16332        -9.87799        -0.11152
H         -5.05215       -11.12929        -0.09389
H         -2.65120       -11.03846         0.46632
H          0.01996       -11.08218         0.63241
H          2.54104       -11.03276         0.76265
H          5.02952       -10.99226         0.77399
H          7.13615        -9.72294         0.64315
H          8.33369        -7.54274         0.49623
H          9.43304        -5.38062         0.60336
H         10.64418        -3.33132         0.61649
