         276
 CSIRO Nanostructure Databank - Neutral Graphene Oxide Data Set
C        -10.95309         0.69048        -0.25073
C         -9.95412         1.56807        -1.02071
C         -8.58424         0.85386        -0.96118
C         -7.45690         1.48125        -0.19833
C         -6.09724         0.80356        -0.39349
C         -4.94203         1.51525         0.29219
C         -3.76546         0.85431         0.51187
C         -2.51674         1.65643         0.33669
C         -1.19487         0.73263         2.18357
C          0.01161         1.45202         1.63289
C          1.29682         0.64020         1.48620
C          2.33665         1.28779         0.57729
C          3.47349         0.43053         0.15478
C          4.69568         1.07503        -0.41337
C          5.96985         0.26168        -0.41976
C          7.26530         0.98678        -0.61637
C          8.48046         0.18206        -0.95737
C          9.77052         0.93525        -1.32147
C         10.74077         0.81363        -0.15288
C         -9.91697         2.99850        -0.50514
C         -8.85806         3.63630         0.03629
C         -7.60816         2.86991         0.31341
C         -6.36968         3.59780         0.71346
C         -5.00848         3.04086         0.25750
C         -3.87620         3.65764         1.05684
C         -2.50318         3.13136         0.68490
C         -1.24986         3.66073         1.57991
C         -0.03305         2.77793         1.28110
C          0.99068         3.32769         0.28539
C          2.31175         2.59823         0.23605
C          3.46063         3.35793        -0.43604
C          4.76702         2.55737        -0.49829
C          5.95971         3.18398        -0.68176
C          7.25675         2.46547        -0.77077
C          8.37601         3.08916        -1.53072
C          9.52953         2.36316        -1.75388
C         -8.97510         5.09062         0.52881
C         -7.65465         5.85814         0.50280
C         -6.46142         5.07716         0.88139
C         -5.13829         5.74598         0.88886
C         -4.08987         4.91223         1.53084
C         -2.17250         5.99337         1.33487
C         -1.15854         5.11857         1.09517
C         -0.11585         5.57464         0.17331
C          1.15500         4.83375         0.40671
C          2.44659         5.57944         0.41177
C          3.72993         4.71710         0.32298
C          4.91110         5.47224        -0.32102
C          6.07088         4.66063        -0.76716
C          7.09330         5.22264        -1.69934
C          8.20379         4.40830        -2.04235
C         -7.51526         7.17024         0.19465
C         -6.18712         7.88688        -0.09226
C         -4.94042         7.16780         0.48305
C         -3.67736         7.96407         0.81514
C         -2.35669         7.26634         0.69102
C         -1.28978         7.84650         0.02592
C         -0.13112         6.99134        -0.33064
C          1.20608         7.57237        -0.79406
C          2.38611         7.12941         0.15788
C          3.68974         7.69884        -0.42308
C          4.68575         6.76736        -1.09162
C          6.02678         7.49361        -1.40414
C          7.00571         6.55467        -2.06998
C         -6.16605         9.37459         0.18811
C         -5.01950        10.07037         0.26741
C         -3.68994         9.42445         0.47868
C         -2.45466         9.99810        -0.10437
C         -1.34267         9.24202        -0.36158
C         -0.15765         9.81319        -1.11911
C          1.16725         9.09870        -0.87903
C          2.32322         9.78998        -0.93216
C          3.64139         9.09899        -0.93882
C          4.64281         9.48650        -1.96850
C          5.73534         8.74353        -2.20460
C        -10.95107        -0.64989        -0.34948
C         -9.91320        -1.32472        -1.23656
C         -8.57561        -0.63814        -0.93511
C         -7.51502        -1.34506        -0.11888
C         -6.20645        -0.64091         0.08498
C         -4.91257        -1.45192         0.07609
C         -3.63907        -0.64591         0.46100
C         -2.44123        -1.37167         1.05170
C         -1.32912        -0.80048         1.99902
C         -0.03751        -1.48171         1.62869
C          1.09801        -0.85318         1.23201
C          2.34786        -1.71776         1.01423
C          3.60769        -0.86319         0.91824
C          4.94051        -1.50133         1.16423
C          6.08851        -1.04042         0.31412
C          7.42931        -1.63998         0.54127
C          8.60363        -1.11455        -0.22053
C         10.02644        -1.57081         0.14756
C         10.85262        -0.34269         0.51333
C         -9.76904        -2.82466        -1.24841
C         -8.62765        -3.50262        -0.86048
C         -7.71392        -2.84292         0.14862
C         -6.38494        -3.56756         0.48993
C         -5.08272        -2.81845         0.76614
C         -3.78834        -3.56338         0.99793
C         -2.49457        -2.86332         1.12654
C         -1.30635        -3.62705         1.32478
C         -0.08447        -2.95414         1.84494
C          1.19191        -3.69835         2.09936
C          2.47282        -2.79500         2.12455
C          3.77710        -3.62550         2.05889
C          5.09579        -2.82749         1.94956
C          6.30996        -3.62843         1.51425
C          7.50936        -2.87339         1.13344
C          8.81718        -3.51674         1.23707
C         10.01013        -2.59083         1.30071
C         -8.44740        -4.86562        -1.19610
C         -7.32317        -5.63122        -0.80185
C         -6.32716        -5.04612         0.15403
C         -4.98223        -5.73583         0.18126
C         -3.73814        -5.03500         0.67386
C         -2.38280        -5.44706         0.12217
C         -1.23572        -4.97602         0.95517
C         -0.05682        -5.84031         1.20222
C          1.19856        -5.20482         1.82595
C          2.53714        -6.01403         1.86214
C          3.80737        -5.12458         1.92086
C          5.14312        -5.84767         1.69631
C          6.37414        -4.98274         1.61732
C          7.68449        -5.74328         1.39375
C          8.90011        -4.85529         1.35687
C         -7.16797        -6.91071        -1.34194
C         -5.93087        -7.70472        -1.29056
C         -4.76496        -6.96118        -0.66659
C         -3.39781        -7.16913        -1.18188
C         -2.30701        -6.83636        -0.42786
C         -1.00064        -7.50275        -0.60312
C         -0.03477        -7.28493         0.59011
C          1.37468        -7.80517         0.26753
C          2.60782        -7.14327         0.80257
C          3.83651        -7.21335        -0.09760
C          5.15273        -6.99058         0.66309
C          6.34601        -7.05958        -0.26650
C          7.52512        -6.49382         0.07941
C         -5.79295        -8.89067        -2.20115
C         -4.68503        -9.65257        -2.39901
C         -3.33613        -9.14904        -2.12685
C         -2.18439        -9.67012        -1.63127
C         -0.97348        -8.85950        -1.30102
C          0.27569        -9.68546        -1.05297
C          1.47750        -8.77947        -0.86698
C          2.66057        -9.05384        -1.44601
C          3.95978        -8.56199        -0.86164
C          5.08392        -8.44636        -1.86131
C          6.19956        -7.76406        -1.53998
O          1.87886         0.49976         2.77999
O          3.66844         0.45659        -1.29344
O          0.29955        -3.36105         3.19990
O         -7.81903         1.70291         1.19204
O         -1.75617        -1.31203         3.27921
O         -3.26718        -7.76694        -2.42861
O          3.84628        -4.48728         3.23384
O         -3.82890        -4.62764         2.03499
O         -6.01261        -3.09899         1.83046
O         -8.10856         0.09285        -2.11590
O         -3.15427         5.62697         2.28133
O         -2.48616        -1.03510        -0.37437
O         -1.57885         1.21271        -0.33486
O         -6.51729         4.17126         2.04271
O         -3.66420         8.93939         1.89302
O          1.75231         5.26024         1.66255
O          8.31151        -1.05575        -1.68219
O          4.23429         8.77571         0.38515
O         -7.13603        -0.74198         1.17707
O         -0.52551         5.85638        -1.20515
O          4.37899        -0.52950         2.10643
O         -0.57283        -7.62144        -1.99469
O          5.79217        -0.98456        -1.13674
O          6.09504         5.39988         0.52268
O         -4.61259         6.08600        -0.45765
O         -5.96168        -5.93941         1.23175
O          7.61332         1.85361         0.52351
O          2.13638        -8.38175         1.39285
O          5.27513        -7.96590         1.77261
O          0.21986        -5.88402         2.64610
O         -5.36019        -8.10716         0.02376
O          7.93474        -6.68599         2.45389
O          0.36083         3.09851        -1.02308
H          0.05609         2.15833        -1.04684
O         -4.92951         3.43530        -1.13270
H         -3.97481         3.59577        -1.34340
O         10.38185         0.25318        -2.45068
H          9.66151        -0.21478        -2.93186
O          2.22739        -2.43291        -0.23933
H          2.33009        -1.79355        -0.97757
O         10.64210        -2.20796        -0.98233
H         10.72890        -1.52411        -1.68909
O          2.12726         7.75899         1.41157
H          2.91345         8.31669         1.62801
O          3.06948         3.71053        -1.77721
H          2.83722         2.88568        -2.25414
O          4.33770        -9.58576         0.08501
H          3.65120        -9.59555         0.79356
O          5.26493        -6.87490         2.77422
H          7.07736        -7.07290         2.75030
O         -5.73860         0.84056        -1.78551
H         -5.21661         0.03190        -1.99454
O          5.43405        -2.44678         3.29839
H          4.61166        -2.08525         3.70805
O          2.52971        -6.70570         3.11578
H          2.72879        -6.04676         3.81836
O          4.14534         6.38490        -2.37778
H          3.16474         6.54288        -2.39375
O         -2.13197         1.29273         2.73156
H         -1.00251        -1.27630         3.90602
O         -0.58401        -8.15181         1.60914
H         -0.14204        -7.90572         2.45670
O        -10.28939        -1.02591        -2.61485
H         -9.44935        -0.85112        -3.10341
O        -10.41579         1.67039        -2.37810
H        -10.60814         0.75134        -2.69177
O         -6.08131         7.82324        -1.54321
H         -5.68369         6.94493        -1.75573
O         -2.30044         3.74947        -0.62984
H         -1.38414         3.53013        -0.95222
O          1.49034         7.06419        -2.11642
H          0.81583         6.35906        -2.29905
O         -9.98614         5.78453        -0.18755
H         -9.73364         5.82142        -1.13266
O         -8.51235        -2.91871         1.35268
H         -7.96513        -2.53696         2.07827
O          6.70420         7.89838        -0.19524
H          6.72850         7.11097         0.40553
O         -1.48699         3.63103         2.96707
H         -2.18463         4.28746         3.18971
O         -0.03274        11.21175        -0.88005
H          0.09708        11.35228         0.08020
O          2.53787        -2.09918         3.36972
H          2.28824        -1.13166         3.24350
O         -2.30012        -4.61344        -1.12073
H         -1.61308        -5.00650        -1.70407
O         -4.73563        -1.79470        -1.33303
H         -3.75925        -1.84301        -1.49514
O          0.11329       -10.49011         0.11794
H         -0.04179        -9.88671         0.88527
O          4.13244         4.37484         1.64529
H          3.33867         4.41923         2.22816
O          9.93539        -1.85030         2.52473
H          9.69920        -2.46341         3.25070
O          3.66380        -6.11743        -1.02470
H          4.31814        -6.22101        -1.75029
H         11.58021        -0.43614         1.33317
H         11.36986         1.67830         0.10462
H         10.33947         2.82981        -2.33646
H          9.00319         4.83806        -2.66575
H          7.80703         6.98937        -2.69000
H          6.46368         9.05781        -2.96781
H          4.45042        10.40074        -2.55002
H          2.29614        10.88445        -1.05981
H         -0.38191         9.69535        -2.21786
H         -2.48090        11.04094        -0.45715
H         -5.05140        11.16978         0.33171
H         -7.12341         9.91299         0.11504
H         -8.41735         7.72841        -0.10664
H         -9.30989         5.04153         1.60170
H        -10.84245         3.57358        -0.67110
H        -11.72162         1.19210         0.35725
H        -11.69889        -1.25892         0.17931
H        -10.51086        -3.36638        -1.85727
H         -9.18479        -5.33629        -1.86471
H         -7.94750        -7.25494        -2.04082
H         -6.75832        -9.30364        -2.53834
H         -4.79697       -10.63326        -2.88805
H         -2.12946       -10.72735        -1.33439
H          0.45262       -10.37616        -1.91508
H          2.72444        -9.86745        -2.18629
H          5.00833        -8.98067        -2.81983
H          7.05105        -7.72195        -2.23628
H          8.38964        -6.58112        -0.59730
H          9.87695        -5.35189         1.45619
H         10.96228        -3.19159         1.27238
