         349
 CSIRO Nanostructure Databank - Neutral Graphene Oxide Data Set
C          1.25398         2.30554         1.12479
C          1.24136         3.64398         0.73548
C          2.44867         1.58847         1.15936
C          2.43174         4.30966         0.35328
C          1.22955         6.44311        -0.15212
C          1.22857         7.76215        -0.52851
C          2.43837         5.69215        -0.05193
C          2.44835         8.44719        -0.83423
C          1.24372        10.57610        -1.40050
C          1.26226        11.92916        -1.28110
C          2.44398         9.81245        -1.19445
C          2.46407        12.59943        -0.66301
C          1.25090        14.82140        -0.69170
C          1.21742        16.20800        -0.64070
C          2.46997        14.11045        -0.74332
C          2.41745        16.94310        -0.54996
C          2.41654        18.36391        -0.38255
C          3.66266         2.20076         0.77796
C          3.66113         3.57817         0.34930
C          4.88837         1.49923         0.90498
C          4.87534         4.21048        -0.02709
C          3.67530         6.34034        -0.34611
C          3.67929         7.71592        -0.71562
C          4.90716         5.58681        -0.30507
C          4.93486         8.40055        -0.91474
C          3.71639        10.52338        -1.57581
C          3.75443        11.98399        -1.15638
C          4.95656         9.77309        -1.18669
C          4.91592        12.70458        -1.20451
C          3.69227        14.80889        -0.69865
C          3.66358        16.23930        -0.54898
C          4.96435        14.12437        -0.88145
C          4.86173        16.94529        -0.32940
C          3.58410        19.04210        -0.15413
C          4.83983        18.34708        -0.08741
C          6.10825         2.06662         0.50608
C          6.08157         3.34190        -0.31130
C          7.31540         1.40417         0.72144
C          7.40806         4.06832        -0.32349
C          6.15970         6.26014        -0.57700
C          6.15449         7.62833        -0.81666
C          7.42645         5.49630        -0.57668
C          7.43200         8.28284        -1.27451
C          6.20704        10.55407        -1.14561
C          6.19309        12.01449        -1.53327
C          7.48024         9.78706        -1.07063
C          7.48496        12.79492        -1.61549
C          6.18101        14.81638        -0.79798
C          6.11983        16.15827        -0.08404
C          7.46046        14.25699        -1.17810
C          7.35076        17.00833        -0.15971
C          6.02680        19.04311         0.22997
C          7.29630        18.39626         0.17796
C          8.57416         1.98413         0.36818
C          8.58145         3.34970        -0.15824
C          9.74908         1.29164         0.60924
C          9.87940         3.95662        -0.51457
C          8.63948         6.16037        -0.66503
C          8.64612         7.63850        -0.65208
C          9.91880         5.44224        -0.77529
C          9.91827         8.40096        -0.59732
C          8.73989        10.46420        -1.56214
C          8.72456        11.96948        -1.40842
C          9.98931         9.83720        -0.96908
C          9.96473        12.48914        -1.60586
C          8.61739        15.05185        -0.99702
C          8.58292        16.39343        -0.41206
C          9.95644        14.64353        -1.36596
C          9.78037        17.12976        -0.20789
C          8.49735        19.11155         0.38594
C          9.75177        18.48268         0.23751
C         11.08332         1.84012         0.34168
C         11.17555         3.26561        -0.19164
C         12.27334         1.28993         0.97044
C         12.37516         4.07227         0.15422
C         11.25048         6.15872        -0.67446
C         11.23152         7.69983        -0.61545
C         12.41349         5.47446        -0.08365
C         12.37291         8.42995        -0.13581
C         11.13143        10.51727        -0.69245
C         11.15079        11.98482        -0.87913
C         12.25552         9.90949         0.13246
C         12.32102        12.84212        -0.48033
C         11.12235        15.08064        -0.78967
C         11.08321        16.51083        -0.46579
C         12.44788        14.32353        -0.94997
C         12.34869        17.23644        -0.18778
C         10.97929        19.17764         0.52895
C         12.23944        18.59045         0.40666
C         13.49244         1.98315         0.92047
C         13.52545         3.40978         0.61801
C         14.69919         1.31603         1.22375
C         14.71621         4.16101         0.93126
C         13.58435         6.22428         0.26315
C         13.62838         7.69598        -0.00888
C         14.70173         5.59642         0.81781
C         14.85292         8.49762         0.28317
C         13.57068        10.67982         0.01190
C         13.57367        12.09330        -0.12791
C         14.77314         9.99078         0.30381
C         14.77470        12.82576         0.04547
C         13.59893        15.03606        -0.22414
C         13.57720        16.43087         0.01422
C         14.77679        14.30521         0.07409
C         14.72972        17.13131         0.43474
C         13.45101        19.25634         0.69920
C         14.69415        18.58891         0.61587
C         15.92556         2.02752         1.31351
C         15.87231         3.47074         1.31954
C         17.14888         1.34994         1.37990
C         17.10307         4.14390         1.86307
C         15.77084         6.43200         1.52378
C         16.01808         7.81767         0.91673
C         17.07808         5.67812         1.84549
C         17.16183         8.52354         1.11004
C         15.96838        10.70722         0.47561
C         15.95273        12.10553         0.34891
C         17.17939        10.04531         1.11114
C         17.23832        12.83597         0.37822
C         15.93483        15.01513         0.50314
C         15.92917        16.42033         0.64673
C         17.17940        14.26535         0.79636
C         17.16901        17.19835         0.90674
C         15.89778        19.31320         0.68038
C         17.16557        18.66916         0.64237
C         18.47087         2.06061         1.46446
C         18.30195         3.55703         1.08343
C         19.53921         1.46896         0.59029
C         19.61722         4.30425         1.19146
C         18.40106         6.38571         1.81321
C         18.39642         7.87686         1.63207
C         19.66181         5.63974         1.52579
C         19.69865         8.60657         1.55558
C         18.52856        10.64837         0.75383
C         18.53708        12.11430         0.49868
C         19.69710         9.99266         0.99027
C         19.76753        12.90191         0.78237
C         18.48507        14.98287         1.00970
C         18.48031        16.48031         0.95988
C         19.76634        14.25962         0.81105
C         19.69422        17.18148         0.43225
C         18.36029        19.36935         0.59025
C         19.65393        18.69167         0.36622
C         20.68802         2.20870         0.34235
C         20.78729         3.60020         0.73081
C         21.82664         1.56340        -0.25213
C         22.00603         4.31667         0.50373
C         21.02311         6.29487         1.73863
C         21.00116         7.83875         1.66813
C         22.11715         5.68748         0.85108
C         22.27518         8.54839         1.34880
C         20.99188        10.75824         1.22590
C         21.06293        12.15735         0.55881
C         22.24267         9.96802         0.80361
C         22.27436        12.92237         1.08641
C         21.01923        15.00641         0.37939
C         20.99605        16.50010         0.59088
C         22.30776        14.37521         0.83903
C         22.14691        17.22525         0.68973
C         20.94878        19.37549         0.53503
C         22.11983        18.68451         0.66754
C         23.02151         2.22857        -0.44642
C         23.11584         3.64130        -0.11473
C         24.17892         1.51614        -0.93670
C         24.29544         4.34241        -0.38973
C         23.32239         6.39389         0.56504
C         23.46325         7.78692         0.87673
C         24.43049         5.71887        -0.05400
C         24.63221         8.48992         0.56595
C         23.53358        10.69173         1.22242
C         23.55577        12.19546         1.30455
C         24.78880         9.92798         0.94996
C         24.89760        12.93088         1.29559
C         23.49198        15.05960         0.84354
C         23.48994        16.56891         0.94779
C         24.77268        14.36889         0.79347
C         24.56383        17.21968         0.08062
C         23.42385        19.43038         0.89147
C         24.66122        18.69784         0.40319
C         25.37556         2.15195        -1.16635
C         25.41899         3.62640        -1.02586
C         26.56102         1.47943        -1.63928
C         26.75506         4.29655        -1.03299
C         25.65859         6.43129        -0.29934
C         25.72449         7.81069        -0.02930
C         26.87901         5.71496        -0.63493
C         26.91990         8.57730        -0.40690
C         26.00815        10.69190         0.55221
C         26.02571        12.15842         0.63553
C         27.03912        10.00934        -0.04332
C         27.14129        12.87068         0.24725
C         25.90536        15.04543         0.35744
C         25.88725        16.48727         0.14886
C         27.15969        14.31960         0.17170
C         27.05476        17.18363        -0.05124
C         25.85010        19.34120         0.31681
C         27.09153        18.63288         0.03688
C         27.80389         2.08338        -1.66484
C         27.96638         3.43599        -1.07387
C         29.00274         1.41697        -2.09609
C         29.31613         4.09258        -0.99033
C         28.11290         6.32390        -0.68767
C         28.17688         7.78909        -0.72759
C         29.44022         5.57567        -0.60308
C         29.50631         8.46042        -0.57916
C         28.21165        10.75193        -0.65873
C         28.42884        12.11028         0.02031
C         29.53000         9.97282        -0.54124
C         29.51827        12.88880        -0.68734
C         28.32720        15.00339        -0.16374
C         28.29371        16.46575        -0.51660
C         29.57537        14.33824        -0.42214
C         29.58525        17.18184        -0.22419
C         28.30177        19.29060         0.02919
C         29.56419        18.58428        -0.04394
C         30.21815         2.05249        -2.13600
C         30.40360         3.42415        -1.73868
C         31.47968         4.17419        -2.17029
C         30.58701         6.30251        -1.29289
C         30.70152         7.73304        -1.05505
C         31.55661         5.58329        -1.95638
C         31.86409         8.45792        -1.24187
C         30.79841        10.65185        -0.89506
C         30.79566        12.14031        -1.02477
C         31.91072         9.88355        -1.14078
C         32.02958        12.93535        -0.96594
C         30.78064        15.02935        -0.54635
C         30.80856        16.47875        -0.30461
C         31.99650        14.28579        -0.78445
C         32.01031        17.19974        -0.14726
C         30.78511        19.27661         0.10313
C         31.99122        18.58114         0.05675
O         10.07387        13.65550        -2.33309
O         17.89604        17.01117         2.18835
O         11.39250         2.15824        -1.09547
O         17.69258         6.13486         3.09896
O         17.71225        14.47113         2.14502
O         11.85376        17.22221        -1.58017
O         24.28356        10.11600         2.32675
O          6.75391        12.38747        -2.83948
O          6.93445        10.31329         0.15175
O         29.83371        12.56612        -2.06379
O         18.94636         8.54501         2.82905
O         19.53168        17.83661        -0.85834
O         14.63077         8.00647        -1.09789
O         21.85984         8.40089         2.74005
O         18.00972        12.53447        -0.83308
O         11.24091        12.64613         0.48754
O         21.19734        12.09710        -0.85234
O         29.63837         9.17869         0.68828
O         11.52045         6.94504        -1.86390
O          9.90391         4.48079        -1.88404
O         25.95635         4.23097        -2.26699
O         22.74676        12.63322         2.45402
O          9.11354         8.18451         0.62628
O         28.76288         3.35271         0.16039
O         27.34565         8.33729        -1.81273
O         17.16126         3.73491         3.25434
H         17.54082         4.50079         3.75521
O         28.17692        16.48769        -1.99741
H         28.37585        17.40325        -2.28827
O         27.87934        10.97204        -2.03824
H         27.61842        10.10201        -2.42361
O         17.01465        10.39545         2.52533
H         17.74915         9.94882         3.01871
O         11.84274        10.08104         1.52583
H         11.56081        11.02320         1.62064
O         17.90658         3.62870        -0.30957
H         18.59872         3.18802        -0.84806
O         23.57704        19.64674         2.30981
H         23.74741        18.75808         2.70625
O         29.79709         5.61848         0.80740
H         29.39183         4.82314         1.22591
O         21.03751        14.81420        -1.07215
H         21.07383        13.82122        -1.22804
O         23.84703        16.86502         2.33623
H         23.33695        16.26242         2.91817
O         28.97162        11.87496         1.34740
H         28.28196        11.44491         1.89678
O         12.80895        14.28057        -2.34553
H         12.77356        15.19958        -2.68969
O          2.39061        12.27529         0.77275
H          3.13101        12.73940         1.21904
O          6.03840        15.77070         1.35683
H          5.98802        16.60288         1.87532
O         20.97611        10.95820         2.64588
H         21.23674        10.11321         3.08679
O         22.25773         9.79850        -0.62209
H         21.89111        10.64270        -1.03877
O          5.88205         2.90500        -1.70366
H          6.68598         2.41317        -1.97689
O          7.53865         8.00425        -2.69368
H          6.78037         8.41585        -3.15684
O         21.39454         5.92290         3.09468
H         21.88094         6.69202         3.47815
O         15.15223         6.73899         2.80499
H         15.88118         6.97015         3.42676
O         25.30976        13.05337         2.69190
H         24.48344        13.03365         3.22894
O         18.95999         1.91470         2.82434
H         18.33001         2.41773         3.40070
O          8.79040        10.27085        -3.00451
H          8.15651        10.90902        -3.40862
O         24.10065        17.09351        -1.29145
H         24.84283        17.32066        -1.88953
O          3.71423        10.55210        -3.06039
H          3.49191         9.64978        -3.37457
H          0.31447         1.81768         1.41917
H          0.28345         4.18026         0.73766
H          2.45553         0.53958         1.48837
H          0.26839         5.96135         0.06993
H          0.27561         8.30447        -0.59003
H          0.30628        10.06355        -1.66855
H          0.35007        12.50569        -1.48627
H          0.29954        14.27297        -0.69003
H          0.25365        16.73622        -0.61848
H          1.45666        18.89972        -0.40740
H          4.88584         0.50252         1.37239
H          3.57585        20.13043         0.00177
H          7.30975         0.41564         1.20543
H          5.98056        20.11984         0.44777
H          9.69198         0.30508         1.09355
H          8.44981        20.17347         0.66790
H         12.23596         0.28228         1.40965
H         10.90913        20.20958         0.90534
H         14.69565         0.22314         1.34712
H         13.43225        20.32282         0.96986
H         17.14742         0.24957         1.42585
H         15.85649        20.41304         0.70262
H         19.49275         0.41003         0.29449
H         18.33863        20.47073         0.57678
H         21.74969         0.49489        -0.50125
H         20.95258        20.47508         0.59675
H         24.09146         0.43057        -1.09315
H         23.36298        20.44247         0.41453
H         26.46745         0.43028        -1.95953
H         25.91148        20.41999         0.53086
H         28.92150         0.38026        -2.45460
H         28.32662        20.38254         0.16341
H         31.08754         1.52294        -2.55405
H         32.27111         3.69032        -2.76076
H         32.41806         6.11194        -2.38945
H         32.78913         7.94127        -1.53506
H         32.87059        10.37198        -1.36299
H         33.00093        12.42369        -1.03327
H         32.95229        14.82841        -0.77384
H         32.97898        16.68359        -0.18384
H         30.77678        20.36498         0.25762
H         32.93941        19.12389         0.17649
