         490
 CSIRO Nanostructure Databank - Neutral Graphene Oxide Data Set
C         37.87459        50.08234         1.99927
C         36.72079        50.73445         2.42927
C         37.62527        52.83547         1.65681
C         36.58562        52.11157         2.24004
C         40.12377        48.66608         0.74678
C         40.10920        50.09400         0.84749
C         38.92629        50.79207         1.38793
C         39.94339        52.97148         0.66738
C         38.80737        52.19791         1.25000
C         39.97894        54.46837         0.69822
C         42.43217        48.64671        -0.04497
C         41.25918        47.97548         0.35498
C         42.37751        50.11057        -0.13670
C         41.20474        50.81729         0.38849
C         42.40028        53.07299        -0.07747
C         41.30686        52.29163         0.71496
C         42.45678        54.49888         0.44704
C         41.29677        55.12688         0.77338
C         44.90489        45.87347        -0.65064
C         43.70398        46.56677        -0.52704
C         44.91110        48.68597        -0.29955
C         43.66443        47.96690        -0.33202
C         44.95022        50.10193        -0.11860
C         43.70930        50.89006        -0.23263
C         44.90426        52.99195         0.31069
C         43.72689        52.33930         0.07140
C         44.95692        54.44192         0.47380
C         43.75242        55.17447         0.55335
C         45.02251        57.23942         0.83649
C         43.81469        56.57695         0.73709
C         47.49297        44.39774        -0.94869
C         47.40567        45.79016        -0.53213
C         46.14132        46.52478        -0.51016
C         47.35084        48.64985        -0.09017
C         46.13753        47.94793        -0.29276
C         47.38232        50.05252         0.01192
C         46.16453        50.77912         0.06800
C         47.39207        52.98776        -0.01721
C         46.19302        52.22618         0.52168
C         47.44964        54.43994         0.29168
C         46.21654        55.13062         0.53197
C         47.51998        57.23780         0.75882
C         46.25034        56.54376         0.72466
C         47.59640        58.63676         0.98379
C         49.86178        44.20195        -0.26367
C         48.64622        43.67595        -0.90801
C         49.81298        45.69032         0.04026
C         48.57661        46.44559        -0.20507
C         49.77409        48.60502        -0.63640
C         48.63963        47.90475         0.12952
C         49.83292        50.07142        -0.26053
C         48.66784        50.75357        -0.06918
C         49.95444        52.93988        -0.18191
C         48.65972        52.22914        -0.23979
C         49.94949        54.45144        -0.20522
C         48.66936        55.11645         0.27275
C         50.00464        57.20690         0.60934
C         48.72385        56.51596         0.53829
C         50.02818        58.63690         0.79361
C         48.81080        59.31221         0.98149
C         52.42398        41.47692        -0.88438
C         51.26629        42.12146        -0.64094
C         52.37532        44.24834        -0.16208
C         51.20915        43.56166        -0.39099
C         52.41119        45.71111         0.09435
C         51.10119        46.45233         0.09872
C         52.40618        48.57000        -0.43123
C         51.10201        47.84302        -0.46346
C         52.34356        50.04217        -0.20640
C         51.10536        50.78997        -0.70184
C         52.42198        52.93979        -0.19820
C         51.12807        52.25335        -0.28404
C         52.44651        54.36415         0.03236
C         51.16802        54.98985         0.54767
C         52.50335        57.11834         0.95486
C         51.19645        56.48905         0.57273
C         52.51390        58.61249         0.79441
C         51.30410        59.33756         0.79351
C         52.59646        61.40930         0.83920
C         51.37632        60.75236         0.77611
C         55.05167        40.04044        -0.97420
C         54.99072        41.43271        -0.79522
C         53.71683        42.24458        -1.00982
C         54.90672        44.34898        -0.37862
C         53.69647        43.49030        -0.10089
C         54.90971        45.73461        -0.29972
C         53.67455        46.47212        -0.14036
C         54.90194        48.62788        -0.21452
C         53.67535        47.85660        -0.13384
C         54.90897        50.02494        -0.21405
C         53.64206        50.77351        -0.06248
C         54.92347        52.95648         0.01045
C         53.61878        52.23627        -0.20005
C         54.86843        54.37875        -0.57360
C         53.64389        55.08977        -0.02834
C         54.95096        57.15491         0.36773
C         53.70789        56.45034         0.32934
C         54.98068        58.51409         0.72879
C         53.76574        59.27703         0.81644
C         55.10542        61.38117         1.00891
C         53.81427        60.70084         0.88686
C         55.12964        62.83266         1.18030
C         57.49517        40.06949        -0.84597
C         56.27499        39.37811        -1.01793
C         57.43393        41.45422        -0.56193
C         56.19396        42.12861        -0.55782
C         57.32662        44.38221         0.01584
C         56.19232        43.63156        -0.72686
C         57.44763        45.78235        -0.60254
C         56.13161        46.51125        -0.42047
C         57.39055        48.63494        -0.53371
C         56.13934        47.89206        -0.34449
C         57.36505        50.07054        -0.72049
C         56.12273        50.78597        -0.47172
C         57.31990        52.94136        -0.98250
C         56.11812        52.17080        -0.47913
C         57.36460        54.36966        -0.49425
C         56.17653        55.08208        -0.29321
C         57.42838        57.15617         0.09478
C         56.19427        56.45044         0.08077
C         57.47055        58.55186         0.41347
C         56.28277        59.15745         1.12967
C         57.62836        61.32604         1.28936
C         56.27690        60.66781         1.06213
C         57.59299        62.85914         1.25010
C         56.27704        63.51780         1.34507
C         60.14609        37.38468        -1.25226
C         58.88387        38.05077        -1.18788
C         60.07198        40.22891        -1.11927
C         58.79045        39.40460        -0.98628
C         59.99441        41.57579        -0.45792
C         58.68945        42.16075        -0.18393
C         59.92885        44.38979         0.08199
C         58.65958        43.65217         0.12314
C         59.89480        45.85904         0.16246
C         58.59635        46.56199        -0.01579
C         59.85332        48.50097        -1.06364
C         58.59450        47.97366        -0.44587
C         59.82927        50.02378        -1.16894
C         58.57184        50.77105        -0.89851
C         59.84914        52.89843        -0.79442
C         58.62463        52.19177        -0.84190
C         59.85704        54.33056        -0.60394
C         58.62178        55.03271        -0.40673
C         59.87383        57.14182        -0.28003
C         58.64040        56.43952        -0.20104
C         59.77637        58.62247        -0.55700
C         58.62204        59.31824         0.14345
C         59.80101        61.50198        -0.08140
C         58.69959        60.70603         0.39491
C         59.83599        62.88082         0.00291
C         58.74514        63.63473         0.65134
C         59.67261        65.75970        -0.17554
C         58.60925        65.06286         0.28078
C         62.73603        35.96092        -0.99245
C         62.53018        37.30216        -0.60205
C         61.30969        38.04013        -0.90337
C         62.38088        40.12184        -0.10326
C         61.29761        39.46739        -0.64923
C         62.41926        41.57363        -0.06313
C         61.15508        42.27215        -0.14081
C         62.40737        44.41003         0.15710
C         61.14796        43.70770         0.08395
C         62.42120        45.91423         0.41813
C         61.15246        46.61388        -0.01994
C         62.36968        48.64605        -0.61671
C         61.12617        47.90693        -0.46260
C         62.37624        50.00723        -0.88137
C         61.12560        50.76335        -1.11556
C         62.32518        52.91040        -0.89369
C         61.11224        52.22015        -0.87480
C         62.33815        54.34409        -0.78044
C         61.08457        55.03849        -0.56783
C         62.39401        57.19887        -0.30616
C         61.07852        56.45974        -0.44360
C         62.31271        58.65756        -0.69589
C         61.06563        59.38132        -0.25639
C         62.25719        61.54914        -0.69454
C         60.94229        60.80756        -0.81003
C         62.21369        62.92213        -0.70204
C         60.88766        63.64750        -0.79344
C         62.12840        65.83766        -0.43268
C         60.95323        65.12472        -0.43649
C         62.20836        67.27724        -0.19871
C         64.66375        35.74867         0.47868
C         63.84040        35.23667        -0.54134
C         64.31258        37.02341         0.94909
C         63.43990        37.89707         0.29920
C         64.82299        40.08450         0.63835
C         63.43643        39.37837         0.68881
C         64.91326        41.47814        -0.00188
C         63.61575        42.26270         0.08818
C         64.89023        44.42881         0.09597
C         63.62186        43.70723         0.12248
C         64.89722        45.82905        -0.13160
C         63.65159        46.58214        -0.14426
C         64.83028        48.56064        -1.11555
C         63.61334        47.89997        -0.52909
C         64.83328        50.06437        -0.97858
C         63.61560        50.75570        -0.94057
C         64.78817        52.88401        -1.20594
C         63.58836        52.18560        -1.01837
C         64.72936        54.34392        -1.57291
C         63.53663        55.05636        -0.97578
C         64.73939        57.17964        -1.21495
C         63.57532        56.47257        -0.90149
C         64.68908        58.64737        -1.37593
C         63.45406        59.37621        -0.99138
C         64.74074        61.51044        -0.91333
C         63.48662        60.81707        -0.89496
C         64.74039        62.95869        -0.46745
C         63.46694        63.67866        -0.85599
C         64.69929        65.90538        -0.41981
C         63.42089        65.16443        -0.72265
C         64.56214        67.06411         0.55056
C         63.35468        67.89161         0.16880
C         66.97726        33.06680         1.85546
C         65.85767        33.70658         1.45741
C         67.04851        35.83812         1.68022
C         65.99366        35.07305         0.81510
C         67.15767        37.32823         1.41931
C         66.08396        38.13969         1.58610
C         67.29340        40.17378         0.95238
C         65.99090        39.51026         1.08614
C         67.31627        41.60570         0.72727
C         66.14487        42.27928         0.41815
C         67.34457        44.46074         0.29987
C         66.13699        43.72555         0.25597
C         67.36347        45.84863        -0.06676
C         66.12324        46.52411        -0.33053
C         67.30309        48.63423        -0.85001
C         66.12479        47.91919        -0.68668
C         67.30352        50.06225        -1.07849
C         66.05633        50.77593        -1.08095
C         67.26685        52.92366        -1.32794
C         66.03254        52.19846        -1.21190
C         67.25281        54.36905        -1.37654
C         66.02927        55.08436        -1.37923
C         67.23970        57.23600        -1.34978
C         66.00615        56.49705        -1.37368
C         67.26184        58.67304        -1.30435
C         65.99173        59.42402        -1.47181
C         67.21694        61.61292        -1.11822
C         65.94605        60.86304        -1.13328
C         67.21223        63.04350        -0.71453
C         66.02422        63.72760        -0.73415
C         67.30776        65.88792        -0.09888
C         66.01148        65.20279        -0.54392
C         67.09890        67.11283         0.78766
C         65.86378        67.80389         0.80931
C         66.99771        69.78055         1.67205
C         65.83177        69.11592         1.32016
C         69.47818        31.48524         1.86041
C         69.44703        32.87969         1.51163
C         68.29818        33.65573         1.61714
C         69.54493        35.72794         1.10597
C         68.35904        35.09678         1.41774
C         69.59458        37.20652         0.75494
C         68.49897        37.98455         1.46016
C         69.75867        40.08333         1.15594
C         68.46732        39.44135         1.06401
C         69.78808        41.49334         1.32665
C         68.63913        42.29264         0.78427
C         69.80199        44.70029         0.85507
C         68.65075        43.79237         0.54621
C         69.81286        45.99044         0.23582
C         68.58665        46.54820        -0.23547
C         69.81900        48.71140        -0.76042
C         68.59358        47.86583        -0.96867
C         69.78316        50.09585        -1.06443
C         68.51411        50.78527        -1.19847
C         69.73401        52.95027        -1.37793
C         68.49464        52.21734        -1.31269
C         69.72508        54.37891        -1.40375
C         68.48050        55.09133        -1.37390
C         69.71051        57.23555        -1.23763
C         68.47135        56.52068        -1.33582
C         69.70377        58.64847        -1.04554
C         68.46088        59.35759        -1.10222
C         69.72067        61.51393        -0.55401
C         68.50990        60.84385        -1.09411
C         69.68244        62.86838        -0.13830
C         68.45319        63.66197        -0.24256
C         69.53328        65.47917         1.05669
C         68.39277        64.92427         0.30692
C         69.48048        66.92533         1.53815
C         68.25411        67.73261         1.30914
C         69.48523        69.79542         1.94870
C         68.24164        69.10342         1.68122
C         69.55841        71.19259         1.86357
C         71.90349        31.43706         1.59136
C         70.65303        30.78837         1.89879
C         71.93805        32.71168         1.14343
C         70.67302        33.46561         0.83095
C         71.97081        35.64929         0.87685
C         70.77538        34.97317         0.97249
C         72.05247        37.07476         1.01886
C         70.92729        37.85696         1.05762
C         72.10754        39.91585         1.80493
C         70.93997        39.29126         1.32321
C         72.07456        41.24762         2.19690
C         70.92701        42.01952         1.95134
C         72.07462        45.15706         1.68143
C         70.91743        44.36369         1.63242
C         72.14218        46.31759         0.92296
C         71.01397        46.76907         0.21987
C         72.23067        48.83310        -0.49660
C         71.02636        48.10066        -0.37999
C         72.21820        50.15073        -0.90967
C         70.99850        50.82702        -1.13505
C         72.17133        52.99244        -1.51430
C         70.97411        52.25860        -1.36693
C         72.16221        54.37478        -1.55332
C         70.95474        55.09578        -1.43860
C         72.14822        57.27398        -1.20903
C         70.95104        56.53882        -1.30973
C         72.13607        58.64251        -0.96979
C         70.92889        59.35173        -0.85118
C         72.08914        61.40242        -0.01710
C         70.91801        60.76656        -0.48457
C         72.06422        62.72520         0.38687
C         70.87172        63.47936         0.35645
C         71.96848        65.51547         1.31429
C         70.84747        64.83333         0.89505
C         71.91506        66.86549         1.78500
C         70.75765        67.59617         1.82955
C         71.99078        69.79344         2.16889
C         70.71553        69.01823         2.36646
C         71.99240        71.15148         2.04107
C         70.77201        71.87626         1.93530
O         68.98878        42.84421        -0.55416
O         70.91288        43.29003         2.52258
O         60.47213        50.45030        -2.42562
O         52.80712        50.36145         1.12906
O         47.79123        52.65758        -1.38009
O         51.79743        46.22090         1.35414
O         69.19465        65.79806         2.45683
O         39.65218        53.75103        -0.52522
O         65.23235        59.06924        -2.68001
O         68.01589        61.42645        -2.35464
O         51.88340        48.01713        -1.68795
O         63.48209        64.51667        -2.04185
O         65.46232        66.05690        -1.64124
O         59.05802        46.31844         1.33978
O         64.92179        37.54180         2.09898
O         49.64119        44.69762         1.10221
O         42.91873        50.59470        -1.43718
O         51.03045        50.70942        -2.10749
O         58.61081        42.66720         1.21418
O         58.62073        63.43192         2.12785
O         62.66791        57.20993         1.14473
H         61.98657        57.80265         1.54875
O         61.14375        59.49203         1.19988
H         61.88294        60.10257         1.41010
O         49.45153        48.61180        -2.02910
H         50.05118        49.31950        -2.42588
O         70.58387        68.84675         3.83545
H         70.54170        69.74613         4.22502
O         57.81288        45.76143        -1.99511
H         57.14620        45.23259        -2.49565
O         50.10624        54.83854        -1.59606
H         49.48807        54.28898        -2.12647
O         55.08026        53.11696         1.45635
H         54.92540        52.24375         1.87635
O         66.70730        35.65108         3.07222
H         67.40191        36.09796         3.60128
O         41.74731        52.34128         2.11043
H         41.07535        51.87776         2.65479
O         65.09554        41.23030        -1.43926
H         66.01309        40.90954        -1.57342
O         56.85562        44.57874         1.36645
H         57.24754        43.86270         1.91755
O         57.11172        53.05653        -2.45827
H         57.21331        52.15691        -2.83960
O         69.35212        37.31982        -0.67316
H         70.04915        36.80833        -1.13479
O         51.04471        54.56913         1.93824
H         51.66408        55.12975         2.46509
O         70.42090        33.24357        -0.61104
H         69.53356        33.61743        -0.80386
O         64.66153        62.91846         1.00312
H         65.45554        62.45443         1.34340
O         68.86643        37.95283         2.88591
H         68.26062        38.55611         3.36646
O         42.06712        53.14037        -1.46990
H         42.21462        52.24347        -1.85728
O         54.68728        54.30066        -2.00361
H         55.50779        53.90794        -2.39842
O         66.65760        34.90228        -0.47060
H         66.08265        34.35738        -1.04682
O         46.40651        52.18607         1.97008
H         45.60289        51.81301         2.38911
O         62.49144        46.06563         1.87804
H         61.61278        45.81966         2.24053
O         60.63052        60.83150        -2.22676
H         61.27153        60.25355        -2.69247
O         52.65308        56.84402         2.41798
H         53.50963        57.23830         2.69720
O         53.83345        42.99597         1.25929
H         53.83561        43.76829         1.86388
O         64.24225        66.40486         1.81961
H         64.15775        67.09741         2.50809
O         60.21382        40.48307        -2.55998
H         60.35430        39.61467        -2.99364
O         60.45563        63.61070        -2.18618
H         60.48163        62.66260        -2.47467
O         56.32504        43.73584        -2.18617
H         55.45409        43.42812        -2.55397
O         58.03292        60.97307         2.65487
H         58.62830        61.70249         2.95434
O         64.74971        48.30063        -2.56872
H         65.47613        48.80350        -2.99596
O         67.90876        66.47988        -1.30183
H         67.16168        66.67285        -1.91943
O         49.00831        48.01943         1.53395
H         48.60529        47.27660         2.03017
O         64.49113        54.35714        -3.03337
H         64.50038        55.29505        -3.32240
O         62.99358        39.47730         2.07276
H         63.55624        38.85527         2.59130
O         56.43585        58.80720         2.55470
H         57.13339        59.40834         2.91743
O         59.82801        47.97727        -2.42396
H         60.24703        48.66611        -2.99386
O         59.53381        58.65811        -1.99148
H         58.70713        58.16005        -2.16406
O         68.65835        47.49052        -2.40998
H         67.93020        46.85248        -2.57422
O         53.77835        42.74191        -2.39155
H         53.62766        41.98171        -2.99238
H         37.95165        48.99696         2.14702
H         35.91324        50.16029         2.90373
H         37.51011        53.91865         1.51619
H         35.66904        52.62691         2.55780
H         39.23428        48.09031         1.03181
H         39.12842        55.03447         1.13264
H         41.24086        46.87690         0.37595
H         41.30264        56.15457         1.16466
H         44.87119        44.78863        -0.82039
H         42.76357        46.00370        -0.60191
H         45.01203        58.32877         0.97201
H         42.88955        57.16628         0.78535
H         46.60664        43.93891        -1.41008
H         46.68189        59.21758         1.16121
H         48.67613        42.67996        -1.37436
H         48.80412        60.39669         1.15593
H         52.40966        40.39492        -1.08083
H         50.32382        41.55521        -0.61025
H         52.58851        62.50671         0.84560
H         50.45806        61.35241         0.72541
H         54.13406        39.45713        -1.13457
H         54.17996        63.37849         1.24296
H         56.27366        38.29800        -1.21606
H         56.24915        64.59774         1.54413
H         60.15415        36.30119        -1.43221
H         57.98293        37.42279        -1.23116
H         59.57373        66.84348        -0.34056
H         57.66371        65.58208         0.48827
H         62.04966        35.49376        -1.71186
H         61.30652        67.88453        -0.37219
H         64.03125        34.23410        -0.95382
H         63.37158        68.98553         0.27896
H         66.90550        32.05866         2.28856
H         64.86528        33.24991         1.58600
H         66.93380        70.82542         2.00412
H         64.87509        69.65160         1.39689
H         68.55161        30.98815         2.18097
H         68.64653        71.77210         1.65924
H         72.83787        30.87943         1.75173
H         70.66261        29.73622         2.21558
H         72.90629        33.17444         0.90642
H         72.91738        35.09981         0.78557
H         73.05323        37.51563         1.13524
H         73.02476        39.33277         1.96042
H         72.94056        41.71387         2.68389
H         72.91718        44.84092         2.30901
H         73.06366        46.91219         0.94750
H         73.19620        48.35740        -0.28207
H         73.17486        50.68074        -0.99937
H         73.13625        52.47415        -1.58189
H         73.11915        54.90357        -1.64962
H         73.11934        56.76832        -1.28569
H         73.09738        59.16424        -0.87614
H         73.03281        60.84662         0.05509
H         72.99015        63.17790         0.76493
H         72.96055        65.04725         1.25431
H         72.86971        67.32485         2.07636
H         72.94870        69.26337         2.26390
H         72.94477        71.69894         1.98912
H         70.79319        72.96953         1.83623
