         349
 CSIRO Nanostructure Databank - Neutral Graphene Oxide Data Set
C          1.18890         2.33659         1.09714
C          1.23180         3.72579         0.69737
C          2.29540         1.54400         1.03927
C          2.34891         4.28245         0.16302
C          1.21023         6.58457        -0.17845
C          1.29328         7.94075        -0.31466
C          2.41421         5.70545        -0.38181
C          2.52864         8.67035        -0.41512
C          1.44571        10.59777        -1.65636
C          1.49779        11.91434        -2.04661
C          2.53957        10.01189        -0.91864
C          2.68368        12.72060        -1.94235
C          1.47943        14.88594        -2.08203
C          1.51316        16.26146        -1.93460
C          2.67417        14.12641        -2.08275
C          2.73597        16.94781        -1.70920
C          2.71803        18.30804        -1.27860
C          3.56658         2.07891         0.61464
C          3.58245         3.42167        -0.08427
C          4.73444         1.38393         0.78429
C          4.87232         4.16657         0.20255
C          3.68154         6.40935         0.08285
C          3.75823         7.92889        -0.01194
C          4.92438         5.58848         0.06234
C          5.10280         8.47962        -0.34111
C          3.63800        10.88811        -0.73513
C          3.89921        12.08201        -1.47723
C          5.40189         9.81776        -0.28879
C          5.19323        12.65168        -1.59976
C          3.96552        14.83279        -2.22481
C          3.99012        16.27193        -1.86329
C          5.28568        14.01755        -2.16340
C          5.17471        16.93294        -1.52039
C          3.87377        18.93997        -0.89995
C          5.13652        18.26596        -0.98062
C          6.03933         2.01494         0.64245
C          6.03573         3.46322         0.47567
C          7.20955         1.30184         0.75116
C          7.28360         4.20031         0.71272
C          6.16726         6.21054        -0.08106
C          6.20268         7.55189        -0.66896
C          7.39699         5.55907         0.16670
C          7.53609         8.14945        -0.98792
C          6.50058        10.44170        -1.00421
C          6.47375        11.86232        -1.51358
C          7.47098         9.55900        -1.40416
C          7.84268        12.58409        -1.67679
C          6.57773        14.81056        -2.07482
C          6.49343        16.29940        -1.73382
C          7.93937        14.08767        -1.93964
C          7.68607        16.98743        -1.22908
C          6.30207        18.89800        -0.53174
C          7.59448        18.28547        -0.65280
C          8.57585         1.89880         1.03350
C          8.57018         3.41932         0.97521
C          9.74582         1.28572         0.27863
C          9.81510         4.12072         0.72575
C          8.65210         6.22297         0.07281
C          8.77931         7.57556        -0.41761
C          9.84027         5.50879         0.47412
C          9.95807         8.34119        -0.18400
C          9.29883        10.55075        -1.25824
C          9.11136        11.96597        -1.16554
C         10.10914         9.78695        -0.41197
C         10.14913        12.70667        -0.59542
C          8.94796        14.81596        -1.05622
C          8.97977        16.28320        -1.23977
C         10.10347        14.16869        -0.62010
C         10.21451        17.05694        -0.89158
C          8.74883        19.00674        -0.29271
C         10.11515        18.58041        -0.75386
C         10.97806         1.89158         0.18668
C         11.05666         3.30776         0.71669
C         12.18969         1.09681         0.00450
C         12.27761         4.13267         0.91611
C         11.03556         6.29033         0.66474
C         11.05134         7.66584         0.48201
C         12.15487         5.58186         1.38837
C         12.19185         8.45086         1.03484
C         11.23134        10.54297         0.13870
C         11.29540        11.99801        -0.06010
C         12.29975         9.88607         0.71726
C         12.43147        12.70861         0.34472
C         11.26798        14.90784        -0.21459
C         11.31879        16.31121        -0.24305
C         12.55836        14.15859        -0.04702
C         12.42437        17.02960         0.29406
C         11.19987        19.16698         0.09846
C         12.36152        18.47020         0.43701
C         13.44724         1.65653        -0.25209
C         13.51169         3.80319         0.19894
C         14.77005         1.26417         0.06123
C         14.71738         4.30976         0.55175
C         13.48872         6.28657         1.33521
C         13.43285         7.74116         1.54316
C         14.67407         5.60781         1.20425
C         14.70858         8.49212         1.67068
C         13.65280        10.55250         0.74707
C         13.59442        12.05368         0.87471
C         14.72972         9.84531         1.54206
C         14.73904        12.77089         1.20506
C         13.61996        14.91683         0.70145
C         13.58799        16.33195         0.75625
C         14.76362        14.21380         1.11876
C         14.74201        17.05018         1.20482
C         13.51149        19.16783         0.89938
C         14.73296        18.50702         1.18352
C         15.93346         2.11233         0.08208
C         15.97267         3.66416        -0.00294
C         17.17053         1.47598         0.10472
C         17.21881         4.28263         0.64105
C         15.95312         6.24390         1.55491
C         15.95311         7.71468         1.90816
C         17.20644         5.56735         1.18311
C         17.23863         8.43530         1.75629
C         15.92569        10.61800         1.98073
C         15.93411        12.10739         1.79296
C         17.22734         9.87022         2.09342
C         17.22318        12.83364         1.75936
C         15.95596        14.92885         1.42005
C         15.93202        16.34190         1.47795
C         17.20358        14.20402         1.58409
C         17.18395        17.06112         1.80158
C         15.92416        19.23332         1.32106
C         17.19380        18.60032         1.65591
C         18.42561         2.16595         0.23634
C         18.43042         3.53733         0.63923
C         19.63781         1.51043        -0.03475
C         19.68923         4.14685         1.10899
C         18.47197         6.25866         1.66203
C         18.41304         7.77096         1.51311
C         19.73446         5.62102         1.14125
C         19.63774         8.51284         1.25882
C         18.54469        10.60849         2.08947
C         18.53338        12.15232         2.17699
C         19.69797         9.86671         1.50030
C         19.68632        12.77555         1.41078
C         18.43595        14.98147         1.50308
C         18.45140        16.34228         1.57546
C         19.66974        14.24167         1.18907
C         19.77062        17.08427         1.67825
C         18.47519        19.23305         1.33004
C         19.68520        18.55478         1.30621
C         20.91667         2.11392         0.15908
C         20.99585         3.42063         0.87417
C         22.07280         1.50629        -0.27092
C         22.22008         4.25432         0.70115
C         20.85977         6.31275         0.79674
C         20.67206         7.76825         0.40910
C         22.13513         5.63128         0.54424
C         21.97131         8.52655         0.15445
C         20.97347        10.60034         1.31354
C         21.00942        12.09586         1.39442
C         22.08293         9.96904         0.54556
C         22.16810        12.83002         0.83344
C         20.92564        14.98463         0.95235
C         20.90617        16.35213         0.98091
C         22.13352        14.21124         0.66274
C         21.99043        17.12104         0.26671
C         20.90147        19.23856         1.06398
C         22.10029        18.57258         0.68838
C         23.37935         1.97519         0.29759
C         23.47194         3.50221         0.43798
C         24.60272         1.37311        -0.34456
C         24.67596         4.25505        -0.02095
C         23.30435         6.43132         0.13647
C         23.23680         7.78248        -0.06067
C         24.68558         5.78819         0.10923
C         24.41762         8.64145        -0.51910
C         23.38073        10.69254         0.54806
C         23.38690        12.05817         0.63946
C         24.65020         9.87914         0.37718
C         24.69792        12.80468         0.64149
C         23.34841        14.93101         0.33161
C         23.31457        16.38929         0.22463
C         24.55384        14.24705         0.19807
C         24.44988        17.10091        -0.00500
C         23.28132        19.24932         0.47985
C         24.40317        18.58554        -0.27055
C         25.61093         2.07740        -0.88702
C         25.46670         3.57097        -1.15553
C         26.80520         1.37596        -1.49686
C         26.79845         4.28198        -1.47345
C         25.67536         6.50411        -0.79636
C         25.70384         7.86896        -0.73601
C         26.85111         5.78011        -1.33208
C         26.93713         8.61741        -0.94995
C         25.78871        10.70792        -0.19665
C         25.79324        12.06311        -0.08735
C         26.96648         9.99953        -0.70477
C         26.94348        12.85443        -0.66753
C         25.76291        14.95245        -0.08038
C         25.74820        16.43401        -0.33742
C         26.96884        14.29486        -0.23019
C         26.93071        17.11802         0.34988
C         25.74791        19.26107        -0.15337
C         26.92328        18.59789         0.02344
C         28.08894         2.14542        -1.28392
C         28.08189         3.55039        -1.35049
C         29.30357         1.45809        -1.13161
C         29.30260         4.27392        -1.31773
C         28.15917         6.47506        -1.33274
C         28.16946         7.91141        -1.21478
C         29.32361         5.71960        -1.43844
C         29.39620         8.61231        -1.21828
C         28.21581        10.71240        -0.73410
C         28.24940        12.11725        -0.54490
C         29.44197        10.00456        -0.90461
C         29.46302        12.80231        -0.43095
C         28.21534        15.03837        -0.17993
C         28.22855        16.39493         0.03066
C         29.47280        14.24612        -0.08906
C         29.49941        17.15079         0.36417
C         28.20031        19.26922        -0.08465
C         29.40178        18.61305        -0.03321
C         30.50535         2.15703        -1.06335
C         30.52537         3.55828        -1.18274
C         31.78573         4.27137        -1.20627
C         30.61727         6.37753        -1.69004
C         30.64639         7.93203        -1.58575
C         31.84499         5.59596        -1.47829
C         31.90368         8.64042        -1.31685
C         30.68604        10.70493        -0.80798
C         30.69939        12.10325        -0.56509
C         31.90919         9.94418        -0.94754
C         31.93291        12.86867        -0.60750
C         30.79117        14.98860        -0.06419
C         30.75071        16.47032        -0.16869
C         31.98391        14.21379        -0.45053
C         31.81158        17.20529        -0.60055
C         30.61698        19.31889        -0.36775
C         31.76821        18.64601        -0.64363
O          4.63278        14.32144        -3.42861
O         19.37312        13.26327         0.07990
O         13.39448         2.93001        -0.87643
O         26.65070         5.12577        -2.65171
O         17.99604        10.06778         3.33268
O         17.18352        17.90281         2.97812
O         21.69233         9.59513        -0.82902
O         12.40359         8.19550         2.49633
O          8.52716         9.90674        -2.23530
O          4.49073        10.66415         0.35112
O          6.65641        15.79564        -3.13856
O         21.37278        11.28418         2.55283
O          7.81090         4.01796         2.08384
O         20.37639         3.42841         2.19306
O         24.66416         3.69286         1.32902
O          9.99204        16.66867        -2.30164
O         11.84242         3.23081         1.98357
O          6.76412         7.41575        -2.03485
O          3.58316         7.22089         1.28487
O         15.64158        11.48523         3.12367
O         24.61106         3.62407        -2.26909
O         15.93751         6.72226         2.97943
O         30.17356        14.50540         1.19596
O         30.62502         7.23390        -2.87447
O          7.19378        11.93666        -2.79218
O         23.35052         1.46518         1.66842
H         24.02583         1.97699         2.16841
O         16.06406         3.98718        -1.41631
H         15.26082         3.61408        -1.84336
O         10.29723        19.18707        -2.07485
H         10.14098        18.46477        -2.73240
O         20.10340        17.06712         3.10455
H         19.32662        17.43828         3.58124
O         21.55141        17.20083        -1.14693
H         21.45087        16.28100        -1.47597
O         24.02883        18.69600        -1.70402
H         23.12596        18.29693        -1.78506
O         18.74643        12.50728         3.55780
H         18.27840        11.83039         4.10188
O         25.24692         6.09332         1.42167
H         24.99496         5.35110         2.02206
O         25.92105        16.57645        -1.78403
H         25.42623        17.38428        -2.06777
O          2.57898         5.59004        -1.84410
H          1.72168         5.29342        -2.21757
O         14.15614        10.35415        -0.64537
H         13.67543        10.98462        -1.22698
O         26.77146        16.99240         1.78710
H         27.65235        17.20063         2.18593
O         25.03794         9.40760         1.68576
H         25.27220        10.18850         2.23163
O         18.54342         6.02782         3.10340
H         17.67329         6.30016         3.48899
O         24.08966         9.18135        -1.82303
H         23.97968         8.43631        -2.44991
O          8.81461         1.53631         2.43098
H          8.43198         2.25897         2.97887
O         26.71982        12.94387        -2.12326
H         25.97794        13.56770        -2.27648
O         20.00797         7.66326        -0.89131
H         20.25972         8.46885        -1.40236
O         11.78613         5.54546         2.78767
H         11.82951         6.47535         3.11606
O         26.91735         0.03996        -1.00888
H         27.07812         0.07503        -0.04390
O         13.10117        14.06980        -1.43790
H         12.95865        14.94301        -1.86454
O          8.58322        14.15990        -3.23254
H          8.30896        15.01412        -3.64398
O         29.58881        17.11677         1.83355
H         29.80926        16.17635         2.05717
O          3.61261         3.11024        -1.51374
H          3.52018         3.97049        -1.99163
O         25.13671        12.86133         2.04283
H         24.48990        13.40882         2.53726
H          0.23793         1.93504         1.47336
H          0.31881         4.32304         0.84049
H          2.25409         0.50316         1.39353
H          0.21644         6.12073        -0.09297
H          0.35722         8.52047        -0.32132
H          0.53823        10.00845        -1.84468
H          0.61177        12.35690        -2.52268
H          0.50960        14.37114        -2.12066
H          0.57238        16.82759        -1.88023
H          1.75043        18.82485        -1.20376
H          4.70294         0.35822         1.18436
H          3.84938        19.97326        -0.52581
H          7.13914         0.21089         0.88823
H          6.23636        19.91437        -0.11792
H          9.66094         0.21681         0.02660
H          8.63062        20.01919         0.12148
H         12.12369         0.02962         0.26740
H         11.17056        20.25650         0.25464
H         14.93834         0.21505         0.35432
H         13.47729        20.26630         0.94661
H         17.20706         0.37918         0.01231
H         15.92677        20.30429         1.06909
H         19.60601         0.48480        -0.43235
H         18.45185        20.28544         1.00529
H         22.02872         0.56279        -0.83561
H         20.90356        20.33972         1.09696
H         24.70589         0.27965        -0.25111
H         23.35051        20.32195         0.71883
H         26.62830         1.30246        -2.60470
H         25.76726        20.34419        -0.35654
H         29.29458         0.35970        -1.09093
H         28.19181        20.34320        -0.33360
H         31.45445         1.61222        -0.95617
H         32.71092         3.69371        -1.06243
H         32.81843         6.09469        -1.58223
H         32.85528         8.11541        -1.47794
H         32.87455        10.43832        -0.77399
H         32.86562        12.34467        -0.85714
H         32.94042        14.73846        -0.58552
H         32.73731        16.71068        -0.92880
H         30.57092        20.41284        -0.47625
H         32.67440        19.18996        -0.94322
