         420
 CSIRO Nanostructure Databank - Neutral Graphene Oxide Data Set
C         28.05492        27.60276        -1.54955
C         28.07679        29.00586        -1.37483
C         26.85107        29.79378        -1.39183
C         28.09521        31.62942        -0.29495
C         26.85497        31.06991        -0.96081
C         28.09989        33.12683        -0.17206
C         26.93838        33.74620         0.29873
C         28.01922        35.91729         0.28973
C         26.88365        35.12115         0.50796
C         27.97672        37.36149         0.46364
C         26.74822        38.04109         0.66122
C         27.87001        40.20679         0.63887
C         26.69522        39.41955         0.72257
C         27.79978        41.65665         0.61717
C         26.62362        42.38543         0.76022
C         27.75993        44.55291         0.97048
C         26.59974        43.79797         0.90019
C         27.78376        45.98786         1.12641
C         30.49033        27.51718        -1.40698
C         29.22821        26.87206        -1.50866
C         30.53257        28.94019        -1.36268
C         29.31247        29.66899        -1.24099
C         30.50609        31.81695        -1.03936
C         29.34930        31.08068        -0.92359
C         30.51517        33.24971        -0.80983
C         29.27544        33.88408        -0.39767
C         30.41371        36.06529        -0.29339
C         29.22757        35.28694        -0.13344
C         30.41607        37.45047         0.06494
C         29.17034        38.11755         0.39853
C         30.36119        40.29462         0.58710
C         29.12869        39.54286         0.53723
C         30.34483        41.68162         0.59886
C         29.06093        42.38852         0.44397
C         30.29008        44.54267         1.17443
C         29.04225        43.89300         0.69159
C         30.25460        46.04816         1.35023
C         28.94217        46.70396         1.16533
C         32.89361        24.65341        -1.01995
C         31.73101        25.36463        -1.19457
C         32.95431        27.49114        -1.43151
C         31.72955        26.78874        -1.36007
C         32.96980        28.91941        -1.47146
C         31.77249        29.64127        -1.39670
C         33.01837        31.83695        -1.13577
C         31.74770        31.14915        -1.59574
C         32.98405        33.31102        -1.05831
C         31.69269        34.01191        -1.00255
C         32.64263        36.35956        -1.11984
C         31.59403        35.45793        -0.82021
C         32.78585        37.62619        -0.51432
C         31.62572        38.17497         0.07274
C         32.81182        40.38404         0.09389
C         31.67712        39.54016         0.70937
C         32.81304        41.70811         0.80776
C         31.55274        42.46983         0.73790
C         32.81013        44.57730         1.16926
C         31.57107        43.83651         0.97425
C         32.77486        46.04516         1.18523
C         31.54402        46.76041         1.15887
C         32.74867        48.83207         0.71439
C         31.55957        48.14430         0.92533
C         35.39891        23.14569        -0.86884
C         35.38016        24.57511        -0.91208
C         34.16533        25.28083        -1.10453
C         35.56290        27.44576        -1.28665
C         34.20377        26.70465        -1.45636
C         35.55969        28.94937        -1.24580
C         34.24639        29.67982        -1.45129
C         35.54367        31.81127        -1.03052
C         34.18744        31.12207        -1.09935
C         35.36999        33.14845        -0.37297
C         34.21688        33.93720        -0.87023
C         35.47290        36.05595        -0.46815
C         34.49949        35.32136        -1.09555
C         35.46727        37.53408        -0.52384
C         34.10507        38.33082        -0.50418
C         35.33771        40.32371         0.41182
C         34.15240        39.68654         0.08856
C         35.37371        41.74665         0.76859
C         34.08999        42.44070         1.02584
C         35.29901        44.59626         1.36926
C         34.02569        43.90307         1.15813
C         35.28022        46.11165         1.30953
C         33.98731        46.77891         1.07634
C         35.25343        48.87316         0.59194
C         33.98910        48.16785         0.79788
C         35.29970        50.24225         0.35246
C         37.75779        23.12593        -0.25570
C         36.54309        22.44639        -0.58742
C         37.76489        24.53010        -0.27516
C         36.61330        25.28226        -0.65585
C         37.85562        27.42053        -0.29641
C         36.66668        26.70280        -0.68914
C         37.86776        28.85958        -0.21513
C         36.68928        29.63548        -0.56157
C         37.80917        31.72777         0.11663
C         36.66701        31.01268        -0.40098
C         37.82882        33.11129         0.27100
C         36.53763        33.84887         0.22246
C         37.87110        35.97190         0.12234
C         36.50863        35.36460         0.41025
C         37.90793        37.48827         0.05400
C         36.63906        38.23580         0.02619
C         37.82854        40.24923         0.70584
C         36.60843        39.59152         0.36788
C         37.80855        41.64157         1.26819
C         36.55405        42.42452         0.96840
C         37.76038        44.58020         1.14533
C         36.58227        43.87645         1.14155
C         37.83264        46.09685         1.32984
C         36.53381        46.79681         0.98138
C         37.74400        48.83850         0.36425
C         36.50478        48.14545         0.64627
C         37.73556        50.24542         0.13391
C         36.51966        50.91940         0.15165
C         40.20012        20.29230         0.28704
C         39.00420        20.99084         0.15464
C         40.23679        23.11178         0.03619
C         38.98112        22.39126         0.02512
C         40.24735        24.49888        -0.02078
C         38.97663        25.23968         0.26466
C         40.27217        27.39364         0.13014
C         39.03401        26.71080        -0.02303
C         40.27296        28.81766         0.27001
C         39.03829        29.51886         0.18668
C         40.30211        31.67925         0.52836
C         38.98688        30.94619         0.65002
C         40.30538        33.09589         0.57819
C         39.06557        33.82497         0.51397
C         40.31913        35.95737         0.60140
C         39.09707        35.23679         0.48771
C         40.32510        37.40004         0.67309
C         39.14011        38.14836         0.48693
C         40.27711        40.28336         0.92868
C         39.07639        39.56695         0.71873
C         40.29173        41.71274         0.97154
C         39.08348        42.40369         1.03973
C         40.34483        44.62148         0.99777
C         39.04975        43.85355         1.22387
C         40.24627        46.01000         0.49735
C         39.02506        46.71943         0.61062
C         40.04494        48.71510        -0.50737
C         38.93502        48.07482         0.21945
C         40.14739        50.15507        -0.58212
C         39.05680        50.99365         0.04669
C         40.02573        52.88824        -1.26190
C         38.97385        52.35282        -0.60620
C         42.67585        20.25504         0.44532
C         41.44594        20.96638         0.27386
C         42.72451        23.07505         0.19501
C         41.48054        22.37724         0.12767
C         42.75572        24.49396         0.09834
C         41.51523        25.24140        -0.31442
C         42.72243        27.36775         0.26458
C         41.50337        26.68225         0.13142
C         42.73151        28.80058         0.40311
C         41.50856        29.51655         0.42570
C         42.76263        31.65979         0.55300
C         41.51612        30.96183         0.50892
C         42.77636        33.08623         0.64005
C         41.54511        33.80676         0.63880
C         42.78660        35.93815         0.82433
C         41.54853        35.23654         0.69737
C         42.76327        37.36867         1.00755
C         41.56094        38.07169         0.97178
C         42.73278        40.21680         0.49907
C         41.55721        39.56643         1.25432
C         42.76487        41.72287         0.60211
C         41.55509        42.43674         0.82258
C         42.74721        44.52639         0.33899
C         41.56100        43.83890         0.70147
C         42.68932        45.92682         0.01439
C         41.42924        46.58821        -0.03918
C         42.60814        48.65108        -0.90339
C         41.37164        47.89742        -0.68585
C         42.54164        50.03693        -1.26139
C         41.30138        50.75962        -1.12036
C         42.41230        52.79134        -1.92741
C         41.26732        52.16093        -1.44020
C         43.87223        20.92129         0.51140
C         45.18061        23.05315         0.45349
C         43.94172        22.34691         0.40210
C         45.20313        24.47971         0.33568
C         43.96293        25.20152         0.21321
C         45.19427        27.34337         0.28568
C         43.96883        26.64238         0.23842
C         45.20588        28.77758         0.33828
C         43.97871        29.50214         0.42457
C         45.23515        31.62963         0.48102
C         43.99264        30.92964         0.49785
C         45.26081        33.05804         0.60106
C         44.01989        33.79660         0.71278
C         45.28617        35.92837         0.99978
C         44.00833        35.20864         0.83689
C         45.32020        37.40660         0.87502
C         44.05617        38.09951         1.15400
C         45.27566        40.23911         0.44764
C         44.05130        39.59671         0.90883
C         45.17027        41.61275        -0.15865
C         43.95527        42.39094         0.30705
C         45.17580        44.50630        -0.15034
C         43.96293        43.80565         0.18512
C         45.12826        45.88027        -0.39905
C         43.88854        46.60178        -0.38131
C         45.07458        48.76683        -0.89186
C         43.83169        47.98438        -0.74612
C         45.02295        50.08583        -1.55648
C         43.72517        50.74862        -1.64151
C         43.62719        52.10112        -2.00862
C         47.61623        23.05139         0.63121
C         46.42626        22.37378         0.63017
C         47.67365        24.46593         0.41867
C         46.43177        25.18400         0.30365
C         47.64972        27.33214         0.11539
C         46.43712        26.62398         0.22716
C         47.67048        28.74930         0.14425
C         46.44581        29.47534         0.28660
C         47.69768        31.60350         0.23769
C         46.45968        30.90682         0.34240
C         47.71918        33.02992         0.30693
C         46.50404        33.72467         0.53866
C         47.77487        35.90139         0.38113
C         46.57102        35.17064         0.78650
C         47.68151        37.36405         0.04198
C         46.48329        38.09766         0.62321
C         47.71086        40.27224         0.22256
C         46.47723        39.54941         0.45594
C         47.70676        41.65325         0.01700
C         46.46380        42.38827        -0.07328
C         47.68539        44.53491        -0.18358
C         46.44060        43.77227        -0.17377
C         47.64712        45.89962        -0.38051
C         46.38509        46.53798        -0.91087
C         47.58762        48.72407        -1.38332
C         46.39291        48.05018        -0.82498
C         47.46372        49.97903        -1.91330
C         46.19335        50.63477        -2.03191
C         50.15756        24.51041         0.48793
C         48.90502        25.15267         0.31630
C         50.17851        27.32657         0.07315
C         48.90652        26.56744        -0.20667
C         50.16020        28.74751         0.00122
C         48.91667        29.46349         0.04655
C         50.15715        31.60330        -0.03141
C         48.92327        30.88291         0.08884
C         50.16686        33.04526        -0.02273
C         48.95531        33.74811         0.17514
C         50.18813        35.91375        -0.05972
C         48.95291        35.19778         0.15637
C         50.17891        37.36163        -0.02859
C         48.99669        38.07047         0.17969
C         50.09361        40.24643        -0.41987
C         49.03519        39.55981         0.44301
C         50.19572        41.72066        -0.03931
C         48.96283        42.40668        -0.00660
C         50.17679        44.53044         0.01978
C         48.94843        43.82648        -0.01761
C         50.18342        46.00761        -0.11400
C         48.87478        46.71787        -0.33547
C         50.14905        48.54038        -1.61160
C         48.88476        48.09963        -0.99654
C         51.34852        25.19984         0.42050
C         52.62956        27.35263         0.33246
C         51.38728        26.62788         0.25496
C         52.63662        28.75285         0.05712
C         51.38900        29.46486        -0.08627
C         52.59155        31.62088        -0.48652
C         51.36192        30.88279        -0.19022
C         52.62455        33.07683        -0.32911
C         51.40320        33.76956        -0.16425
C         52.65361        35.91576        -0.27722
C         51.40430        35.20997        -0.17538
C         52.65547        37.34925        -0.29822
C         51.43257        38.05059        -0.23983
C         52.72720        40.24960        -0.31134
C         51.40748        39.48878        -0.47660
C         52.65460        41.62367         0.19276
C         51.42272        42.40559         0.14364
C         52.63866        44.63527         0.07941
C         51.40683        43.84912         0.17931
C         52.70796        45.88342        -0.59800
C         51.46304        46.68879        -0.60575
C         51.32150        47.89287        -1.44128
C         55.02719        27.42618         0.80159
C         53.85359        26.71538         0.68416
C         55.06290        28.81596         0.49883
C         53.87183        29.45054         0.07319
C         55.14689        31.62899        -0.10160
C         53.93899        30.84835        -0.35475
C         55.11582        33.04113        -0.30873
C         53.87284        33.76043        -0.37061
C         55.12767        35.90201        -0.34716
C         53.88242        35.19737        -0.34163
C         55.14659        37.32974        -0.24496
C         53.91877        38.06220        -0.25492
C         55.17387        40.14196         0.21282
C         53.95137        39.46434        -0.07462
C         55.12633        41.52682         0.57473
C         53.82868        42.07576         0.79567
C         55.12652        44.56072         0.15260
C         53.85141        44.14974         0.59002
C         55.15672        45.72539        -0.64774
C         53.97095        46.40498        -0.94205
C         56.26543        29.57856         0.62214
C         56.29074        30.93746         0.37256
C         56.33319        33.78154        -0.36127
C         56.33853        35.15257        -0.40414
C         56.36928        38.04726        -0.08939
C         56.38754        39.39966         0.15166
C         56.28156        42.38702         0.66196
C         56.29031        43.74881         0.45882
O         33.63890        35.95191        -2.00972
O         45.86951        48.68372         0.36755
O         53.76910        43.20427         1.62326
O         35.19399        29.48859        -2.57204
O         38.01701        36.62423        -1.16401
O         53.31406        31.11943        -1.65082
O         35.33577        45.39463         2.61269
O         51.01405        46.76827         0.79826
O         35.51604        33.17992         1.08429
O         34.90740        38.17479        -1.70828
O         44.14321        39.05536         2.27422
O         52.16488        39.95661        -1.64511
O         33.39313        41.72057         2.13844
O         35.11356        26.95112        -2.57869
O         46.08500        35.50293         2.16715
O         48.83409        47.93656         0.46631
O         40.38960        48.01648        -1.75161
O         30.21245        45.12885         2.50825
O         39.86018        44.36448         2.35546
O         29.11404        43.36057        -0.66569
O         38.72804        30.84496         2.10787
H         38.59112        31.75725         2.44315
O         37.76301        41.45363         2.73894
H         37.99527        42.31160         3.15645
O         44.91523        41.36370        -1.60626
H         44.87286        42.23892        -2.04862
O         42.55171        39.90076        -0.90734
H         43.29843        40.32096        -1.40386
O         38.01422        46.34061         2.75845
H         37.19932        46.00538         3.20199
O         47.39949        37.38976        -1.42698
H         47.71276        38.25766        -1.76743
O         49.42556        39.75355         1.83308
H         48.73211        39.36000         2.40341
O         28.06990        31.12093         1.08617
H         28.07136        30.14120         1.03228
O         31.98519        39.35808         2.11095
H         31.22383        38.91587         2.53971
O         46.41805        46.28797        -2.36590
H         46.39097        45.31688        -2.50245
O         35.93104        32.08491        -2.40521
H         35.90336        31.21725        -2.88038
O         32.47473        40.66759        -1.28576
H         32.62359        39.85792        -1.81923
O         39.44785        51.23014         1.44710
H         40.29544        51.72355         1.43567
O         41.68987        39.77519         2.68083
H         42.57069        39.42234         2.96246
O         48.88313        26.41727        -1.68959
H         49.69801        25.92990        -1.93790
O         49.56418        40.21371        -1.77488
H         50.33076        40.36043        -2.37539
O         38.82393        25.17564         1.74893
H         38.73794        24.22672         1.98648
O         31.69290        31.35726        -3.04509
H         32.50267        30.96328        -3.43461
O         36.22197        35.63768         1.80137
H         35.64471        34.90560         2.12028
O         41.58375        25.31022        -1.79953
H         42.45093        25.70840        -2.02972
H         27.09058        27.09043        -1.67614
H         25.93493        29.32783        -1.78467
H         25.93231        31.66784        -0.98059
H         26.05180        33.13657         0.52035
H         25.94678        35.56491         0.86853
H         25.80841        37.47670         0.71897
H         25.71681        39.90717         0.82572
H         25.66180        41.85867         0.83115
H         25.62721        44.29293         1.03750
H         26.81978        46.51869         1.11087
H         29.17393        25.77948        -1.60055
H         28.89019        47.80183         1.16112
H         32.82872        23.57740        -0.80993
H         30.77491        24.83021        -1.12841
H         32.70382        49.90939         0.50965
H         30.61586        48.70481         0.89324
H         34.48503        22.58746        -1.11207
H         34.37644        50.83642         0.33612
H         36.51788        21.34892        -0.61305
H         36.48072        52.00706         0.00805
H         40.18419        19.19909         0.40291
H         38.06316        20.42381         0.15598
H         39.96938        53.91519        -1.65431
H         38.08123        52.97087        -0.43591
H         42.64655        19.15999         0.54176
H         42.37089        53.85510        -2.20229
H         44.79228        20.33939         0.65509
H         44.52348        52.65003        -2.32685
H         48.54557        22.48138         0.76115
H         46.44167        21.28415         0.76378
H         48.35198        50.51902        -2.27219
H         46.18188        51.61738        -2.52360
H         50.19472        23.43521         0.71134
H         50.10755        49.39440        -2.30400
H         52.28393        24.64194         0.55397
H         52.20730        48.23731        -1.99559
H         55.95131        26.92213         1.11850
H         53.86545        25.64105         0.91009
H         56.11818        46.12354        -1.00153
H         54.02953        47.36757        -1.46937
H         57.17695        29.07109         0.96866
H         57.22380        31.48999         0.54998
H         57.29047        33.24418        -0.39249
H         57.30411        35.67008        -0.46811
H         57.32617        37.51002        -0.10915
H         57.34604        39.90751         0.32324
H         57.26448        41.89633         0.73941
H         57.27255        44.24209         0.38621
