         261
 CSIRO Nanostructure Databank - Neutral Graphene Oxide Data Set
C        -11.20596         0.65175         0.50804
C        -10.01807         1.50387         0.51871
C         -8.66591         0.81545         0.39635
C         -7.54587         1.70321        -0.27883
C         -6.23008         1.03717        -0.53940
C         -4.94170         1.74934        -0.13089
C         -3.70412         0.94488         0.15744
C         -2.60452         1.47973         1.04538
C         -1.32133         0.70891         1.17824
C         -0.04138         1.42955         1.74046
C          1.27980         0.64388         1.48308
C          2.47312         1.38996         0.91089
C          3.63418         0.65435         0.29309
C          4.84895         1.37121        -0.27161
C          6.10590         0.55930        -0.56510
C          7.41029         1.30704        -0.78518
C          8.72886         0.60461        -0.59916
C          9.91804         1.41051        -0.06052
C         11.18385         0.64761        -0.41420
C        -10.07424         2.83371         0.80472
C         -8.88175         3.71500         0.67068
C         -7.61307         3.16156         0.10460
C         -6.32424         3.89851         0.42368
C         -5.03101         3.15433         0.45189
C         -3.92128         3.70442         1.32706
C         -2.63031         2.93882         1.43586
C         -1.30128         3.65673         1.30272
C          0.00618         2.90029         1.29536
C          1.33549         3.62416         1.49118
C          2.60914         2.85458         1.21693
C          3.99730         3.49298         0.95082
C          4.87786         2.86988        -0.16222
C          6.16517         3.59279        -0.54283
C          7.43826         2.82501        -0.81864
C          8.74149         3.54822        -0.69912
C          9.88846         2.86488        -0.48823
C         -8.63056         4.98755         1.47163
C         -7.72350         5.90576         0.69176
C         -6.54608         5.16092         1.25097
C         -5.30410         6.00070         1.64029
C         -3.93222         5.21789         1.54369
C         -2.60564         5.93060         1.40721
C         -1.28743         5.15696         1.42067
C          0.02570         5.85883         1.24926
C          1.34976         5.12286         1.31363
C          2.61837         5.80273         0.90223
C          3.93182         5.03804         0.87405
C          5.12609         5.79022         0.38123
C          6.20038         5.09069        -0.38441
C          7.50535         5.86321        -0.65183
C          8.78967         5.05956        -0.96217
C         -7.72601         7.12695         0.14569
C         -6.43785         7.87969         0.09650
C         -5.24118         7.36174         0.85024
C         -3.89116         8.05665         0.64769
C         -2.58244         7.39558         1.00686
C         -1.27180         7.97576         0.49986
C          0.03240         7.25588         0.67991
C          1.09421         7.51950        -0.43022
C          2.48556         6.93619        -0.09599
C          3.71271         7.64579        -0.58049
C          5.01458         7.25824         0.05394
C          6.26522         8.01555        -0.23925
C          7.53653         7.25498        -0.23951
C         -6.22786         8.89724        -0.95830
C         -5.07614         9.56771        -1.07334
C         -3.83792         9.33191        -0.23470
C         -2.65334         9.23142        -1.22457
C         -1.31936         9.00872        -0.56725
C         -0.17587         9.58858        -1.02064
C          1.14601         9.01435        -0.77019
C          2.29507         9.65876        -1.10431
C          3.61012         8.94593        -1.37828
C          4.86682         9.79196        -1.26934
C          6.07958         9.34072        -0.90056
C        -11.23301        -0.62659         0.04986
C        -10.03894        -1.26201        -0.55038
C         -8.75398        -0.49673        -0.40027
C         -7.47293        -1.27506        -0.52006
C         -6.20361        -0.48346        -0.71634
C         -4.83764        -1.13680        -0.86865
C         -3.75800        -0.55166         0.01722
C         -2.49444        -1.34177         0.09725
C         -1.22162        -0.58658         0.40118
C          0.02616        -1.38643         0.49400
C          1.25426        -0.79809         1.10099
C          2.48923        -1.54621         0.68869
C          3.75868        -0.83859         0.43655
C          5.10657        -1.41782         0.84825
C          6.17942        -0.90769        -0.13180
C          7.49376        -1.63732        -0.13158
C          8.76869        -0.87417        -0.35942
C         10.05772        -1.44582         0.28120
C         11.23684        -0.69097        -0.30295
C         -9.94601        -2.67790        -0.95477
C         -8.73498        -3.38413        -1.02608
C         -7.54568        -2.78038        -0.30050
C         -6.18823        -3.37669        -0.50035
C         -4.90954        -2.62374        -0.55767
C         -3.68632        -3.42234        -0.86261
C         -2.38778        -2.67321        -0.63882
C         -1.13581        -3.47096        -0.43097
C         -0.03647        -2.88277         0.39070
C          1.18455        -3.69472         0.66075
C          2.47411        -3.00748         1.00331
C          3.77555        -3.71376         0.86801
C          5.08433        -2.96085         0.94888
C          6.37872        -3.70195         0.88904
C          7.65984        -2.83907         0.83718
C          8.90711        -3.67614         0.42580
C         10.03863        -2.95314         0.12327
C         -8.63688        -4.75022        -1.38674
C         -7.46259        -5.53397        -1.12149
C         -6.38435        -4.84982        -0.30312
C         -5.05677        -5.61380        -0.20114
C         -3.78899        -4.91294        -0.67968
C         -2.48506        -5.68690        -0.78944
C         -1.17043        -4.96794        -0.61946
C          0.10320        -5.78234        -0.40142
C          1.24543        -5.15838         0.32901
C          2.51413        -5.92243         0.51162
C          3.80067        -5.14260         0.42828
C          5.10610        -5.86065         0.27748
C          6.45531        -5.07944         0.19366
C          7.70079        -5.89418         0.57741
C          8.87887        -5.10694         0.52070
C         -7.42692        -6.90959        -1.28757
C         -6.14793        -7.71981        -1.21621
C         -5.04591        -7.10623        -0.36659
C         -3.75366        -7.90042        -0.40159
C         -2.45784        -7.23060        -0.79702
C         -1.30262        -7.68642         0.11544
C          0.06750        -7.29916        -0.38338
C          1.31237        -8.12276        -0.10516
C          2.59324        -7.38040         0.12069
C          3.80408        -8.06052         0.68838
C          5.10270        -7.29676         0.72681
C          6.42205        -8.05008         0.77262
C          7.66655        -7.28633         0.52240
C         -6.21449        -9.22692        -1.02540
C         -5.10369        -9.97963        -0.87279
C         -3.74842        -9.39060        -0.61038
C         -2.45228        -9.99778        -1.12612
C         -1.23611        -9.96145        -0.55403
C         -0.03762       -10.37608        -0.13225
C          1.19912        -9.58860         0.36758
C          2.56397       -10.20942         0.05667
C          3.78711        -9.61090         0.56669
C          5.14291       -10.19709         0.40019
C          6.30575        -9.51021         0.51713
O          2.47416         1.05173        -0.50255
O         -7.45994         4.71187         2.35931
O         -6.96391        -0.97956        -1.86551
O          3.58876        -8.86471         1.84926
O         -2.34641         0.63264         2.19830
O          2.15165         5.91559         2.26255
O          9.01652        -0.33280        -1.67962
O         -1.38606        -2.74071        -1.66899
O          4.94769         5.56122         1.79572
O         -0.29596         8.32316         1.56658
O         -1.43318        -7.92802         1.30158
O         -5.42735        -2.90902         0.73173
O         -3.96488        -4.26925        -2.00266
O          4.32617        -5.50349        -0.89079
O          6.60100         3.30043        -1.89778
O          2.15206         3.13266         2.57825
O         -3.66576        -8.81815         0.72174
O          2.26906        -7.88326        -1.19754
O          3.10563        -3.53823         2.17943
O         -7.10519        -4.72701         1.03378
O         -8.51497         3.92162        -0.74971
O         -0.65056         3.20955         0.04681
O          3.17646         6.51012        -1.32098
O         -0.29728        -0.61680        -0.71177
O         -9.43660        -0.40165        -1.64259
O          6.77139        -4.83283        -1.12235
O          5.58023         8.07711         1.10724
O         -3.53677         3.05935         2.57058
O         -3.85243         1.64477        -1.10437
O          0.56496         6.83188        -1.52260
O         -3.26090         8.27416         1.95408
O         -6.12344         8.36130         1.45582
O          5.72856        -3.53874         2.14872
O          6.55240        -1.81446        -1.20757
O         -8.15297         0.55312         1.64426
O         -3.17731         5.62919         2.71145
O          0.13968        -3.49629         1.69216
O          1.60018        -5.81841         1.62024
O         -0.56114         5.69787         2.56892
O         -1.72466        -5.22770        -1.93450
O          4.34381         2.25122        -1.33395
O          3.02920        -1.44703        -0.67343
O          6.63617         0.76450        -1.88758
O          6.41898         5.72811        -1.65492
O          5.76338        -7.52887         1.99101
O         -3.45264        -1.34581         1.18839
O          1.39586        -0.39739         2.50062
O         -5.14313        -6.49889         0.94891
O         -5.35986         4.09843        -0.63685
O          0.28833        -6.56889        -1.61140
O         -7.06477         1.57979        -1.62356
O          7.86175        -2.31848         2.10465
O         -7.77813        -3.35255         1.06802
O         -3.62491        10.47538         0.60343
H         -3.42632        10.14491         1.51040
O         -2.20123        -7.65054        -2.14689
H         -1.64807        -6.95196        -2.57873
O         -0.18964         1.52304         3.15439
H         -0.00081         0.64380         3.55103
O          1.01026        -9.58315         1.79488
H          1.82190        -9.22691         2.23048
O          5.43504        -0.87233         2.13252
H          6.17030        -1.43843         2.50078
O          9.86674         5.64568        -0.23752
H          9.91583         5.24562         0.65524
O          4.77461         3.14543         2.11633
H          4.30762         3.50035         2.90658
O         -2.90704         8.07028        -2.03561
H         -2.11874         7.89653        -2.59279
O         -4.39718        -0.94650        -2.21739
H         -5.18530        -0.89932        -2.80283
O         -5.58966        -7.53431        -2.56962
H         -6.15751        -8.01566        -3.20795
O         -5.51075         6.32689         3.00273
H         -4.69345         6.75499         3.34319
O          9.77305         1.48397         1.38257
H          9.98750         0.58196         1.75223
O          3.54945         8.59804        -2.78588
H          3.02853         7.76185        -2.84721
O         10.10640        -1.14978         1.70192
H          9.31506        -1.59908         2.13857
H         12.15400        -1.24185        -0.56156
H         12.05399         1.20868        -0.78813
H         10.83955         3.42026        -0.44756
H          9.00142         5.21655        -2.05326
H          8.50068         7.75532        -0.05547
H          6.95813        10.00014        -0.97459
H          4.79396        10.80372        -1.69826
H          2.22878        10.70622        -1.44217
H         -0.24388        10.41378        -1.74807
H         -2.61754        10.15287        -1.86858
H         -4.98153        10.35021        -1.84192
H         -7.07256         9.12151        -1.62681
H         -8.65670         7.66397        -0.09097
H         -9.50807         5.40008         2.01811
H        -11.04403         3.31701         1.00796
H        -12.13873         1.09328         0.89300
H        -12.16488        -1.20882         0.09717
H        -10.88390        -3.21223        -1.17846
H         -9.49986        -5.24015        -1.86466
H         -8.30728        -7.40565        -1.73068
H         -7.19134        -9.72284        -1.14259
H         -5.20484       -11.07604        -0.83066
H         -2.48213       -10.27334        -2.19935
H         -0.00877       -11.42092         0.24097
H          2.64684       -11.05884        -0.63907
H          5.18979       -11.26608         0.14192
H          7.24696       -10.05425         0.34220
H          8.58614        -7.84905         0.29511
H          9.83854        -5.60738         0.74517
H         10.92709        -3.46545        -0.28411
