         196
 CSIRO Nanostructure Databank - Neutral Graphene Oxide Data Set
C        -11.11545         0.58163         0.33844
C         -9.90459         1.35041         0.14758
C         -8.66815         0.62933        -0.07938
C         -7.46409         1.38231        -0.24011
C         -6.25147         0.66476        -0.65504
C         -4.93371         1.43629        -0.69119
C         -3.68062         0.67005        -0.58711
C         -2.47674         1.38338        -0.39507
C         -1.23490         0.67371        -0.48169
C         -0.00037         1.34704        -0.28952
C          1.25692         0.66727        -0.35664
C          2.52268         1.38863        -0.25220
C          3.76688         0.68227        -0.45217
C          4.98268         1.43362        -0.49544
C          6.24038         0.69899        -0.69219
C          7.55894         1.46986        -0.47384
C          8.73714         0.69889        -0.06199
C          9.91047         1.43104         0.33762
C         11.10784         0.67759         0.62424
C         -9.90539         2.73338         0.17530
C         -8.68702         3.49803         0.13740
C         -7.43362         2.77256        -0.03241
C         -6.18279         3.47584        -0.00322
C         -4.96021         2.84206        -0.26498
C         -3.71584         3.52585        -0.09802
C         -2.48573         2.81366        -0.18767
C         -1.26893         3.51210         0.01501
C         -0.02748         2.74113         0.14903
C          1.29407         3.49211         0.24771
C          2.53937         2.78071        -0.09360
C          3.75212         3.52826        -0.15093
C          4.99247         2.83354        -0.32480
C          6.23604         3.56649        -0.17422
C          7.47325         2.89192        -0.12806
C          8.67294         3.57550         0.24074
C          9.88094         2.82269         0.42331
C         -8.71251         4.88433         0.20935
C         -7.49969         5.65345         0.50006
C         -6.15609         4.87544         0.44413
C         -4.92022         5.64831         0.28555
C         -3.69811         4.93997         0.11683
C         -2.46308         5.64330         0.17974
C         -1.23352         4.91876         0.15653
C          0.01881         5.63655         0.21498
C          1.25401         4.95721         0.16223
C          2.48659         5.66011         0.10454
C          3.72817         4.95037         0.00882
C          4.95682         5.67505         0.08090
C          6.20008         4.97541         0.05762
C          7.42392         5.68995         0.28332
C          8.63504         4.97333         0.40562
C         -7.41001         7.10252         0.32966
C         -6.19986         7.77154         0.38589
C         -4.93626         7.05234         0.38661
C         -3.70139         7.77071         0.35636
C         -2.46674         7.06715         0.29494
C         -1.22865         7.77885         0.31255
C          0.00653         7.07076         0.25767
C          1.23753         7.78574         0.27029
C          2.47621         7.08648         0.19585
C          3.70911         7.80024         0.25631
C          4.94061         7.09491         0.23022
C          6.18147         7.81007         0.36673
C          7.38463         7.10877         0.41692
C         -6.14576         9.21931         0.35757
C         -4.96487         9.89674         0.38637
C         -3.69369         9.20641         0.39220
C         -2.48228         9.89649         0.40649
C         -1.23223         9.21078         0.37901
C         -0.00135         9.90529         0.40735
C          1.22983         9.22141         0.36088
C          2.47501         9.91477         0.41100
C          3.69139         9.23342         0.37739
C          4.95357         9.92692         0.47388
C          6.13688         9.24862         0.47971
C        -11.09782        -0.77704         0.32221
C         -9.88112        -1.52201         0.04887
C         -8.65500        -0.77446        -0.16359
C         -7.41394        -1.50152        -0.34142
C         -6.18992        -0.79650        -0.51543
C         -4.95484        -1.47621        -0.62276
C         -3.70236        -0.74614        -0.69236
C         -2.46277        -1.45815        -0.77851
C         -1.25883        -0.72271        -0.75951
C          0.02850        -1.38272        -0.99308
C          1.27603        -0.69312        -0.65525
C          2.51613        -1.47592        -0.34572
C          3.79584        -0.72725        -0.58389
C          5.02839        -1.46356        -0.55810
C          6.26561        -0.75423        -0.49947
C          7.48539        -1.43683        -0.29797
C          8.71323        -0.70076        -0.06516
C          9.91167        -1.43267         0.27813
C         11.10912        -0.68528         0.58156
C         -9.89171        -2.89396        -0.01105
C         -8.69407        -3.67919        -0.45482
C         -7.40273        -2.91080        -0.33128
C         -6.16775        -3.61217        -0.34362
C         -4.93630        -2.90233        -0.51035
C         -3.70259        -3.63422        -0.59875
C         -2.44762        -2.91771        -0.81309
C         -1.24253        -3.61036        -0.88005
C          0.03218        -2.89936        -1.05798
C          1.31978        -3.59488        -0.83781
C          2.49808        -2.91543        -0.77999
C          3.81137        -3.58417        -1.11619
C          5.04480        -2.88330        -0.59076
C          6.26652        -3.59511        -0.40939
C          7.48051        -2.86145        -0.19234
C          8.69234        -3.56748         0.11261
C          9.89222        -2.81971         0.34020
C         -8.60766        -5.05192         0.14002
C         -7.38656        -5.72544         0.19951
C         -6.15571        -5.02502        -0.09750
C         -4.92075        -5.71966        -0.03885
C         -3.71491        -5.02312        -0.39342
C         -2.51313        -5.83624        -0.63335
C         -1.19372        -5.08495        -0.92244
C          0.04394        -5.80906        -0.62628
C          1.28019        -5.03677        -0.51442
C          2.57533        -5.77931        -0.42110
C          3.81749        -5.09844        -0.89169
C          5.09222        -5.81838        -0.57881
C          6.30674        -5.02490        -0.35168
C          7.48586        -5.71406         0.04273
C          8.67745        -4.96702         0.24283
C         -7.31447        -7.11161         0.53259
C         -6.08918        -7.78853         0.59068
C         -4.88226        -7.09059         0.33206
C         -3.56884        -7.75271         0.66192
C         -2.40099        -7.18946        -0.10522
C         -1.19371        -7.87744        -0.13501
C          0.05660        -7.18314        -0.38800
C          1.31391        -7.90195        -0.21483
C          2.55023        -7.24911        -0.34129
C          3.79167        -7.92136        -0.11760
C          5.02257        -7.21304        -0.10740
C          6.23974        -7.86181         0.23846
C          7.44455        -7.12628         0.26960
C         -6.03650        -9.21387         0.87585
C         -4.86746        -9.91394         0.84141
C         -3.60084        -9.26255         0.60794
C         -2.42197        -9.95474         0.47782
C         -1.16201        -9.28649         0.23186
C          0.04516        -9.96633         0.29103
C          1.30120        -9.30471         0.09957
C          2.52463        -9.98125         0.29266
C          3.76339        -9.31699         0.21473
C          5.00971        -9.96548         0.51549
C          6.19020        -9.26952         0.54132
O          3.89337        -3.37640        -2.56508
H          4.37983        -4.15597        -2.92900
O         -6.82758         5.14271         1.71262
O         -1.98965        -5.67313        -1.99455
O          2.45480        -1.61458         1.14834
H          2.51077        -0.70908         1.52562
O         -3.31892        -7.40675         2.08065
H         -2.51723        -7.89843         2.36105
O          0.07551        -2.10053        -2.29362
O         -5.68347         1.16444        -1.92062
O          0.64528         2.95239         1.45422
O         -8.88726        -3.90080        -1.92122
H         -8.07854        -4.34987        -2.24960
O          4.49315        -5.76829        -1.98857
O          1.99243        -5.20834         0.79787
O          7.05885         1.16005        -1.81768
H         12.02771        -1.24531         0.81140
H         12.02331         1.22698         0.88851
H         10.79924         3.36361         0.69673
H          9.56198         5.51665         0.64197
H          8.32797         7.65630         0.56248
H          7.08759         9.79456         0.57055
H          4.94289        11.02355         0.55996
H          2.47002        11.01206         0.49503
H         -0.00521        11.00396         0.46846
H         -2.48511        10.99665         0.43531
H         -4.95980        10.99687         0.39108
H         -7.09716         9.77158         0.34208
H         -8.33662         7.66946         0.15107
H         -9.67585         5.41438         0.15648
H        -10.85502         3.27138         0.31691
H        -12.05507         1.12404         0.52013
H        -12.02519        -1.34597         0.48477
H        -10.83372        -3.43876         0.15627
H         -9.53964        -5.59787         0.35094
H         -8.24641        -7.65712         0.74409
H         -6.98595        -9.73736         1.06157
H         -4.87390       -11.00590         0.97986
H         -2.42135       -11.05328         0.55731
H          0.04884       -11.03800         0.54234
H          2.50562       -11.04800         0.56340
H          5.00002       -11.03997         0.75127
H          7.12835        -9.78601         0.79216
H          8.37766        -7.64219         0.54064
H          9.60081        -5.49283         0.52759
H         10.81260        -3.36427         0.59992
