         349
 CSIRO Nanostructure Databank - Neutral Graphene Oxide Data Set
C          1.62103         1.83627        -1.08002
C          1.66724         3.20507        -1.42058
C          2.71176         1.20650        -0.51228
C          2.82591         3.95557        -1.23029
C          1.68799         6.15669        -1.65465
C          1.71587         7.53714        -1.80316
C          2.86812         5.41133        -1.45103
C          2.92434         8.26078        -1.72450
C          1.76071        10.46014        -2.10110
C          1.78286        11.86216        -2.20484
C          2.96436         9.71775        -1.95440
C          2.96056        12.56992        -2.37138
C          1.73221        14.85663        -2.47230
C          1.74495        16.17785        -2.21557
C          2.97333        14.03516        -2.53809
C          2.98128        16.89664        -1.81393
C          3.04731        18.38165        -1.81230
C          3.92026         1.92538        -0.29984
C          3.98437         3.29513        -0.70121
C          5.07233         1.29610         0.25142
C          5.20030         4.00669        -0.52324
C          4.09438         6.11303        -1.37832
C          4.11547         7.51751        -1.51134
C          5.37086         5.28614        -1.32213
C          5.36342         8.27425        -1.27777
C          4.18137        10.41183        -2.02747
C          4.26356        11.81886        -2.58744
C          5.38662         9.76248        -1.50994
C          5.51090        12.58011        -2.12539
C          4.28470        14.72328        -2.30065
C          4.27071        16.15465        -1.87929
C          5.50807        13.94653        -1.96598
C          5.55370        16.88751        -1.91810
C          4.21284        19.03920        -1.90253
C          5.52977        18.36350        -2.21682
C          6.23445         2.01503         0.49247
C          6.26858         3.38953         0.12596
C          7.47511         1.30078         1.01229
C          7.40696         4.20623         0.57467
C          6.64551         6.08970        -1.00278
C          6.67643         7.57318        -1.16322
C          7.62741         5.57473         0.00858
C          7.82899         8.37956        -0.64746
C          6.73645        10.37666        -1.69268
C          6.79756        11.84436        -2.04437
C          7.87142         9.74936        -1.00501
C          8.06270        12.59871        -1.76130
C          6.73601        14.71557        -1.85068
C          6.73191        16.18540        -1.74156
C          7.93805        14.03163        -2.10053
C          7.90679        16.93218        -1.28101
C          6.73608        19.07586        -1.69280
C          7.88827        18.38810        -1.31060
C          8.66520         2.18408         1.38655
C          8.53513         3.57688         1.26441
C          9.87093         1.50109         1.69864
C          9.47189         4.52875         1.79994
C          9.00892         6.23778         0.06520
C          8.87790         7.74566         0.02364
C          9.79142         5.75040         1.26895
C         10.00023         8.55412         0.51819
C          9.13242        10.49804        -0.94045
C          9.14153        11.97216        -1.15396
C         10.29083         9.83508        -0.19875
C         10.38699        12.68506        -0.69501
C          9.00171        14.88656        -0.21737
C          9.00246        16.31231        -0.66045
C         10.31395        14.16456        -0.43614
C         10.17854        17.02011        -0.27987
C          9.04079        19.10518        -0.87108
C         10.19848        18.45362        -0.39773
C         11.16686         2.07569         1.87758
C         11.29220         3.47413         2.23962
C         12.36048         1.37475         1.59946
C         12.34919         4.27358         1.87303
C         10.97417         6.49527         1.89624
C         11.10250         7.92795         1.35887
C         12.31209         5.72921         1.83919
C         12.41995         8.58696         1.32630
C         11.41645        10.63514         0.32414
C         11.48857        12.00168         0.03540
C         12.49736         9.96835         0.98184
C         12.60279        12.76176         0.50290
C         11.41783        14.90498         0.20099
C         11.35231        16.32711         0.19784
C         12.59543        14.20419         0.50883
C         12.53224        17.05588         0.51797
C         11.36206        19.16528        -0.00528
C         12.52890        18.49805         0.43237
C         13.60517         2.06221         1.50980
C         13.58029         3.55099         1.48804
C         14.83113         1.41416         1.35101
C         14.85625         4.28916         1.69742
C         13.50097         6.43236         1.86191
C         13.58785         7.87265         1.67518
C         14.75299         5.69297         2.27316
C         14.83062         8.56590         1.79117
C         13.71827        10.67655         1.19243
C         13.75730        12.08417         0.99096
C         14.89421         9.97612         1.60358
C         14.96460        12.80692         1.26018
C         13.76041        14.93518         0.87710
C         13.73358        16.36321         0.85167
C         14.96325        14.23259         1.18507
C         14.93820        17.09014         1.10402
C         13.71189        19.20439         0.74651
C         14.91844        18.53302         1.06569
C         16.09633         2.11301         1.38982
C         16.11129         3.49043         2.01938
C         17.28341         1.54023         1.03183
C         17.31554         4.35094         1.55471
C         16.02748         6.46430         2.08285
C         16.05895         7.84083         2.05245
C         17.25739         5.67543         2.27577
C         17.32403         8.55666         2.17823
C         16.13143        10.68408         1.74259
C         16.16514        12.10274         1.57771
C         17.34485         9.97319         2.03335
C         17.40111        12.82712         1.68787
C         16.16971        14.95532         1.38703
C         16.15590        16.39926         1.34169
C         17.38023        14.23450         1.55816
C         17.36023        17.13764         1.53285
C         16.11189        19.24726         1.29831
C         17.34309        18.57792         1.51535
C         18.59455         2.29314         0.94338
C         18.62643         3.61662         1.68069
C         19.81518         1.45531         1.17744
C         19.77471         4.18869         2.16446
C         18.52861         6.38996         2.51826
C         18.53028         7.85911         2.42442
C         19.80084         5.62768         2.48445
C         19.76163         8.55275         2.47475
C         18.58250        10.67385         2.15781
C         18.63472        12.11682         1.99014
C         19.76872         9.95353         2.37697
C         19.84265        12.79048         2.16448
C         18.64248        14.98305         1.51787
C         18.60919        16.46158         1.67544
C         19.91433        14.21622         1.79690
C         19.78703        17.17944         1.83827
C         18.55203        19.29300         1.65517
C         19.80210        18.62888         1.81884
C         20.97269         1.98754         1.60181
C         21.07135         3.36047         2.25475
C         22.26763         1.20281         1.50195
C         22.25548         4.10987         1.63411
C         20.90849         6.38610         2.79337
C         21.02719         7.80955         2.50189
C         22.70269         5.26776         2.14899
C         22.20534         8.38708         2.02898
C         21.11494        10.57367         2.62383
C         21.10450        12.09842         2.56241
C         22.15707         9.88730         1.66120
C         22.44121        12.80584         2.38699
C         21.06594        15.01198         2.35155
C         21.07688        16.45367         1.87026
C         22.39926        14.30408         2.19194
C         22.32413        17.24953         2.03419
C         20.99230        19.35970         1.93077
C         22.32874        18.74639         2.24280
C         23.39235         2.03774         0.79156
C         22.93937         3.47621         0.45916
C         23.94819         1.44547        -0.48287
C         24.16029         4.25723         0.00767
C         23.75042         6.19374         1.62866
C         23.24574         7.63341         1.18353
C         24.44096         5.56338         0.46008
C         24.53263         8.44021         0.89780
C         23.52013        10.60270         1.69775
C         23.61971        11.97819         1.92817
C         24.61638         9.82648         1.14418
C         24.71937        12.73127         1.18160
C         23.47446        15.07545         2.50211
C         23.60854        16.53143         2.31499
C         25.20535        14.04083         1.76178
C         24.81481        17.16293         1.64528
C         23.50226        19.30289         1.45336
C         24.61877        18.58550         1.19269
C         24.76026         2.23608        -1.28295
C         25.02496         3.60690        -0.87039
C         25.34697         1.79164        -2.51204
C         26.30831         4.24115        -1.31567
C         25.45595         6.34492        -0.16670
C         25.57799         7.75017         0.19276
C         26.33477         5.72412        -1.05462
C         26.70749         8.44607        -0.34716
C         25.93138        10.49106         0.93797
C         25.96860        11.96186         0.83728
C         27.03925         9.76994         0.19958
C         27.00912        12.65764         0.29655
C         25.99328        14.86127         1.01648
C         25.76969        16.35131         0.74407
C         26.89422        14.13785         0.08199
C         27.05136        17.08005         0.38330
C         25.76572        19.28932         0.48899
C         27.05536        18.50347         0.38176
C         26.15568         2.64418        -3.28660
C         26.61843         3.90139        -2.76627
C         26.55148         2.27892        -4.61621
C         27.44178         4.72175        -3.53683
C         27.41106         6.48439        -1.66494
C         27.50678         7.90400        -1.35414
C         28.02587         5.96114        -2.97946
C         28.35093         8.75359        -2.20925
C         28.31010        10.46775        -0.29393
C         28.28162        11.99521        -0.09169
C         28.67932        10.14459        -1.73131
C         29.33961        12.77023        -0.81022
C         28.06776        14.93342        -0.43076
C         28.14717        16.38692        -0.14893
C         29.28442        14.24641        -0.88401
C         29.33426        17.08035        -0.53622
C         28.21847        19.18624         0.06029
C         29.38553        18.49722        -0.36319
C         27.31366         3.11879        -5.39173
C         27.77921         4.36806        -4.88171
C         28.58117         5.24583        -5.65778
C         28.73272         6.90944        -3.86234
C         29.09499         8.18976        -3.35810
C         29.02559         6.47169        -5.17644
C         30.08691         9.00636        -3.95034
C         29.86898        10.83381        -2.29895
C         30.24139        12.08645        -1.77043
C         30.49166        10.22861        -3.42074
C         31.35711        12.85839        -2.21719
C         30.40562        14.94164        -1.29609
C         30.45650        16.39869        -1.12066
C         31.47939        14.19629        -1.91370
C         31.58639        17.13990        -1.46728
C         30.56469        19.20695        -0.72057
C         31.64297        18.53252        -1.25761
O         10.24282         9.77913        -1.64948
O         14.33978         4.14485         0.36090
O          6.97426        10.80621        -3.07423
O         28.71818         5.76700        -1.69545
O         21.80833         9.95239         0.31914
O         10.05712         8.77119         1.97827
O          7.16600         6.68584        -2.23921
O         19.53894        14.52882         0.42709
O         17.72515         5.79384         3.65747
O         21.88910        16.79429         0.70293
O         27.02106         9.82963         1.66579
O          3.57766        16.32717        -0.57650
O          5.21985         9.21465        -0.15149
O         29.46181        12.41995         0.65992
O         24.70029        17.10947         3.10542
O         27.56189         9.98267        -2.63050
O         26.89550        14.56505        -1.31738
O         10.84183        13.64225        -1.72439
O         22.07330         5.77593         3.30208
O          3.84671        14.47423        -3.68079
O          8.20630        14.43292         0.59727
O         10.20372         4.05237         2.90106
O          6.96405         5.45119         1.29387
O         24.64326        14.46335         2.96089
O         21.84723        12.59395         3.74787
O         20.83081        15.11962         3.78825
H         21.09485        14.25356         4.18961
O          8.86875        14.68921        -2.81687
H          9.70829        14.16455        -2.88136
O          5.63301        18.45540        -3.69941
H          6.49917        18.07168        -3.95608
O         22.07433        -0.04742         0.84560
H         21.66436         0.11890        -0.02797
O         10.71770         6.63043         3.31442
H         10.04101         7.33817         3.41221
O         14.65743         5.49871         3.73001
H         14.64329         6.38221         4.15612
O          9.72855         5.84706        -1.14012
H          9.22319         6.20190        -1.90826
O         25.99649        20.56952         1.08937
H         26.20273        20.43293         2.03664
O          5.54505         4.77597        -2.68065
H          6.00823         5.47909        -3.19302
O         21.34873         3.12261         3.65085
H         21.51503         3.99960         4.06565
O         29.39147         9.91574         0.47750
H         29.18330        10.06788         1.42535
O         22.56421         7.46612        -0.07693
H         22.16967         8.37721        -0.26703
O         24.71663         6.40913         2.68281
H         24.21593         6.49077         3.52327
O         27.38638         3.64074        -0.51400
H         28.20313         4.15326        -0.73093
O         17.11648         4.70717         0.16695
H         17.43592         3.95480        -0.39167
O         21.98839         3.39214        -0.64062
H         21.83871         4.30268        -0.97374
O         24.08590        13.11985        -0.08420
H         23.58214        12.34956        -0.42732
O         21.50209        10.15072         3.95025
H         21.90665        10.93237         4.39896
O         16.19640         3.26918         3.43622
H         16.01547         4.12159         3.89930
O         18.70771         2.64271        -0.50397
H         19.63669         2.93074        -0.65776
O          4.37085        11.69938        -4.04973
H          4.34196        12.62288        -4.39734
O         24.48947         2.18225         1.72683
H         24.99090         1.34134         1.75183
O          7.13532         0.48571         2.14438
H          6.88702         1.07739         2.88407
O         22.60708        19.00566         3.65093
H         23.46790        18.56991         3.85484
O         24.98289        16.32905        -0.48846
H         25.45995        15.74686        -1.13222
H          0.69167         1.27511        -1.25112
H          0.76340         3.66981        -1.83798
H          2.65674         0.14691        -0.22440
H          0.71691         5.64530        -1.69992
H          0.76563         8.05878        -1.97681
H          0.78543         9.96318        -2.02829
H          0.82502        12.40056        -2.15977
H          0.77944        14.36675        -2.72337
H          0.80608        16.75162        -2.25158
H          2.10752        18.93592        -1.66146
H          5.03135         0.22659         0.50436
H          4.22172        20.13952        -1.86342
H          7.80732         0.58541         0.20952
H          6.74990        20.17600        -1.72466
H          9.83614         0.40488         1.58554
H          9.01949        20.20461        -0.90459
H         12.32800         0.29014         1.41389
H         11.36799        20.26289        -0.07911
H         14.84291         0.32019         1.22084
H         13.71137        20.30317         0.69156
H         17.28698         0.51686         0.62173
H         16.09721        20.34668         1.26518
H         19.80257         0.43629         0.75773
H         18.53088        20.39240         1.62214
H         22.62790         0.97557         2.53672
H         20.93608        20.45900         1.89727
H         23.79190         0.38277        -0.72441
H         23.47407        20.36245         1.15228
H         25.08701         0.79562        -2.89905
H         25.44119        19.49791        -0.56847
H         26.20876         1.31538        -5.02053
H         28.21452        20.28617         0.07105
H         27.58362         2.83189        -6.41839
H         28.82972         4.95416        -6.68839
H         29.58803         7.13428        -5.84894
H         30.62631         8.62276        -4.82810
H         31.32982        10.75037        -3.90409
H         32.14211        12.37245        -2.81437
H         32.37726        14.72982        -2.25326
H         32.46085        16.64373        -1.90900
H         30.60055        20.29611        -0.57668
H         32.55309        19.08069        -1.53802
