         638
 CSIRO Nanostructure Databank - Neutral Graphene Oxide Data Set
C         23.04700        69.79337         1.09902
C         23.07917        71.29597         0.94030
C         21.89768        72.01555         1.06008
C         23.07910        74.12154         0.83937
C         21.89844        73.42836         1.00044
C         25.50854        65.46055         0.53375
C         25.52884        66.97737         0.45784
C         24.35852        67.69051         0.71223
C         25.51972        69.82418         0.49569
C         24.33700        69.09778         0.73625
C         25.52647        71.27127         0.52676
C         24.30784        71.98662         0.73161
C         25.53378        74.11097         0.53951
C         24.31406        73.42105         0.69782
C         27.96466        61.20027        -0.47974
C         27.84829        62.62891        -0.45255
C         26.68692        63.32680        -0.20625
C         27.95523        65.49902        -0.00620
C         26.60418        64.83695        -0.34629
C         27.94464        67.00448        -0.12338
C         26.73084        67.69225         0.18441
C         27.94349        69.83563        -0.01514
C         26.72721        69.11991         0.20661
C         27.95447        71.26789         0.07487
C         26.73454        71.97516         0.32567
C         27.98199        74.10518         0.24179
C         26.74796        73.41624         0.36885
C         30.54257        57.05197        -0.79031
C         30.48285        58.43912        -0.94750
C         29.25901        59.13146        -0.80208
C         30.40375        61.31371        -0.93888
C         29.17011        60.54226        -0.79308
C         30.35537        62.66845        -0.88108
C         29.06620        63.38200        -0.84734
C         30.36571        65.62002        -0.87987
C         29.09104        64.87206        -0.78064
C         30.36131        66.99348        -0.74002
C         29.12530        67.70053        -0.39358
C         30.36804        69.85390        -0.47456
C         29.14260        69.13417        -0.30933
C         30.38619        71.27171        -0.32221
C         29.16957        71.97668        -0.07019
C         30.43502        74.09900        -0.01874
C         29.19034        73.41471         0.05110
C         32.71811        52.81041         0.44320
C         32.88099        54.23185        -0.04426
C         31.75460        54.92675        -0.39244
C         32.99065        57.03433        -0.58487
C         31.77847        56.35216        -0.64214
C         33.04864        58.44979        -0.97031
C         31.74533        59.16814        -1.22976
C         32.92817        61.35971        -0.66106
C         31.73052        60.68776        -1.33348
C         32.86028        62.76470        -0.50133
C         31.55517        63.50636        -0.53742
C         32.93068        65.53885        -1.24147
C         31.56631        64.82083        -1.35121
C         32.81127        67.04687        -1.09889
C         31.58287        67.74020        -0.94194
C         32.79772        69.89800        -0.89302
C         31.58054        69.16838        -0.79384
C         32.83011        71.26949        -0.60888
C         31.62601        71.97438        -0.36193
C         32.88923        74.11220        -0.21380
C         31.64760        73.41403        -0.18558
C         35.25632        48.56339         0.43827
C         35.23149        49.93143         0.77549
C         33.99320        50.68113         0.61452
C         35.34648        52.72923         0.46435
C         34.00252        52.02890         0.49265
C         35.27207        54.23320         0.54840
C         34.15922        54.89810         0.07730
C         35.30606        57.15132         0.31878
C         34.29995        56.31022        -0.44668
C         35.31355        58.50307         0.18958
C         34.35645        59.21996        -0.75665
C         35.24903        61.42932         0.09886
C         34.13312        60.68756        -0.38746
C         35.19060        62.84595         0.14224
C         33.99985        63.51806        -0.17282
C         35.23441        65.73057        -0.39343
C         33.89648        65.03713        -0.14346
C         35.25786        67.03043        -0.89025
C         34.02327        67.73129        -1.12287
C         35.32419        69.91604        -1.37694
C         33.98921        69.18190        -1.50648
C         35.36154        71.35749        -0.95817
C         34.14403        71.93655        -0.26662
C         35.35108        74.11063        -0.22278
C         34.12208        73.44690        -0.30261
C         37.80704        44.48647        -0.46951
C         37.72287        45.77413         0.07807
C         36.50170        46.48702         0.09485
C         37.61272        48.41942         1.26786
C         36.43510        47.81391         0.54023
C         37.64287        49.92980         1.27832
C         36.40725        50.61181         1.18411
C         37.56563        52.82756         1.69220
C         36.24712        52.08743         1.52043
C         37.58130        54.29637         1.43568
C         36.46885        54.94791         0.94393
C         37.65944        57.21455         1.36015
C         36.38001        56.42928         1.05029
C         37.68492        58.63024         1.01236
C         36.34824        59.32570         0.94855
C         37.67015        61.42000         0.65040
C         36.46484        60.74717         0.48333
C         37.66923        62.89127         0.77027
C         36.37682        63.61991         0.56071
C         37.75310        65.67299        -0.09929
C         36.42921        65.09511         0.18963
C         37.75051        66.94757        -0.82810
C         36.51383        67.77067        -0.97414
C         37.85962        69.86045        -0.89849
C         36.56618        69.12169        -1.22111
C         37.85961        71.40080        -0.98558
C         36.65731        72.03979        -0.68415
C         37.80927        74.10576        -0.01104
C         36.61172        73.43259        -0.31130
C         40.42149        40.98982        -2.93810
C         40.30667        42.13927        -1.96125
C         39.11742        42.63635        -1.50735
C         40.25565        44.49015        -0.33629
C         39.05499        43.86559        -0.74674
C         40.19492        45.64511         0.62547
C         38.94328        46.46756         0.50273
C         40.16079        48.50741         1.19357
C         38.92767        47.77635         0.91023
C         40.12698        49.90136         1.45198
C         38.86612        50.59514         1.47337
C         40.12974        52.82845         1.42051
C         38.85876        52.05871         1.73969
C         40.09794        54.27106         1.92248
C         38.81614        55.04215         1.80264
C         40.13073        57.13739         1.22302
C         38.92400        56.48641         1.47582
C         40.15442        58.55668         0.90162
C         38.90130        59.28888         0.85504
C         40.16973        61.40257         0.57334
C         38.92492        60.72310         0.72040
C         40.22848        62.82985         0.47265
C         38.98256        63.62342         0.65402
C         40.23149        65.65740        -0.05859
C         38.94966        65.01161         0.13522
C         40.28712        66.96273        -0.47045
C         39.08249        67.61910        -0.98591
C         40.31146        69.59105        -1.55120
C         39.08763        69.06236        -1.30201
C         40.33396        71.75090        -1.30602
C         39.06516        72.18610        -0.85558
C         40.30756        74.10252         0.07955
C         39.06169        73.48321        -0.23411
C         42.80443        36.65572        -3.50192
C         42.79593        37.97205        -3.01238
C         41.62723        38.79113        -3.10273
C         42.83872        40.66771        -2.15158
C         41.64135        40.11423        -2.70087
C         42.88355        42.08441        -1.76420
C         41.54895        42.85273        -1.64874
C         42.71862        44.54445        -0.22672
C         41.50752        43.98179        -0.71796
C         42.67680        45.82842         0.43274
C         41.45133        46.46886         0.66119
C         42.63158        48.50940         1.40437
C         41.40518        47.82536         1.08446
C         42.58395        49.89921         1.75807
C         41.37599        50.61137         1.68088
C         42.59162        52.76000         1.83474
C         41.39375        52.06483         1.77215
C         42.64650        54.24692         1.86184
C         41.38784        55.04710         1.85031
C         42.60251        57.06896         1.03485
C         41.39963        56.44102         1.33202
C         42.62378        58.48326         0.65452
C         41.36431        59.21941         0.65576
C         42.60875        61.33283         0.20151
C         41.39225        60.65569         0.45856
C         42.66161        62.75165         0.18243
C         41.44811        63.48921         0.33023
C         42.76111        65.64108         0.02335
C         41.47799        64.99260         0.50323
C         42.79382        67.02571        -0.15669
C         41.51901        67.76634        -0.27937
C         42.77027        69.98268        -0.86633
C         41.52945        69.16161        -0.83727
C         42.75946        71.36413        -0.88027
C         41.55527        72.19983        -0.82483
C         42.80322        74.05692         0.21079
C         41.54943        73.46501        -0.13229
C         45.15728        33.80195        -3.95675
C         43.99921        34.54759        -3.99027
C         45.16767        36.40462        -2.86331
C         43.97455        35.86888        -3.45273
C         45.16741        37.73753        -2.35692
C         43.99238        38.52045        -2.43726
C         45.19559        40.44463        -1.41631
C         43.99187        39.87870        -1.98152
C         45.18806        41.77304        -0.89779
C         44.01882        42.57482        -0.97837
C         45.15213        44.41393         0.21618
C         43.95543        43.84874        -0.35714
C         45.12912        45.74475         0.74349
C         43.89689        46.47076         0.83078
C         45.09060        48.39582         1.92459
C         43.84764        47.78888         1.34156
C         45.11954        49.89945         1.83781
C         43.84342        50.60081         2.24874
C         45.04443        52.75729         1.77915
C         43.85192        52.07091         1.91256
C         45.05845        54.17125         1.48411
C         43.89864        54.91677         1.46020
C         45.05945        56.98475         0.84059
C         43.87223        56.34032         1.11963
C         45.06309        58.35619         0.28865
C         43.80258        59.11512         0.29764
C         45.13793        61.30227        -0.03746
C         43.82712        60.53996        -0.22511
C         45.14283        62.67552        -0.08061
C         43.92009        63.45216         0.01996
C         45.22176        65.57838        -0.25159
C         43.95914        64.86529        -0.06701
C         45.21343        67.03447        -0.36697
C         44.01335        67.74646        -0.37543
C         45.25322        69.96567        -0.64895
C         43.97924        69.27020        -0.25960
C         45.29149        71.34287        -0.69103
C         44.04419        72.15683        -0.92523
C         45.25118        74.11043         0.03085
C         44.02329        73.45670        -0.13970
C         46.33217        34.32772        -3.36958
C         47.60281        36.09996        -2.14867
C         46.34624        35.60149        -2.82095
C         47.56552        37.55753        -1.75621
C         46.38315        38.31237        -1.81713
C         47.58201        40.23411        -0.79567
C         46.38310        39.66812        -1.35143
C         47.56408        41.55699        -0.27804
C         46.37912        42.32047        -0.30951
C         47.59336        44.30519         0.54749
C         46.35326        43.66817         0.19101
C         47.60124        45.67804         0.90205
C         46.35879        46.39065         1.08832
C         47.57768        48.47660         1.59221
C         46.36340        47.74165         1.48288
C         47.57095        49.86097         1.72407
C         46.31302        50.57381         1.79457
C         47.60774        52.77907         1.79643
C         46.32764        52.04654         2.15097
C         47.58542        54.14514         1.56609
C         46.34473        54.78754         1.00018
C         47.64371        56.92200         0.58989
C         46.36688        56.30614         1.20636
C         47.57511        58.43401         0.72033
C         46.38112        59.07471         0.06168
C         47.68340        61.30770         0.18432
C         46.44768        60.56671        -0.32755
C         47.68574        62.72357         0.07896
C         46.43021        63.38610        -0.47320
C         47.75339        65.56366        -0.48056
C         46.41411        64.88431        -0.30356
C         47.68948        67.06522        -0.39277
C         46.47778        67.72824        -0.49194
C         47.80520        69.92736        -0.75579
C         46.46879        69.16865        -0.79004
C         47.76366        71.39393        -0.56075
C         46.52339        72.07515        -0.57935
C         47.71928        74.17982        -0.15639
C         46.50177        73.48331        -0.27396
C         48.74900        38.14369        -1.25885
C         50.07054        39.97338        -0.19238
C         48.77606        39.44730        -0.77852
C         50.07509        41.46677         0.02995
C         48.76925        42.08732         0.46971
C         50.03357        44.28409         0.55170
C         48.81396        43.59154         0.49083
C         50.03761        45.67825         0.82190
C         48.83719        46.33922         1.08593
C         50.13754        48.43273         1.62871
C         48.84262        47.67766         1.76648
C         50.09753        49.86460         2.03529
C         48.86860        50.61277         1.54091
C         50.08611        52.78860         1.82015
C         48.84914        52.07674         1.90305
C         50.09211        54.20020         1.71799
C         48.80779        54.96825         1.88840
C         50.06844        57.05119         1.31141
C         48.85895        56.33847         1.27066
C         50.10631        58.47034         1.06763
C         48.84547        59.20684         0.90170
C         50.09320        61.35211         0.68960
C         48.85924        60.64501         0.56094
C         50.08658        62.77803         0.57271
C         48.85479        63.45539         0.34477
C         50.12130        65.68329         0.40458
C         48.78416        64.96523         0.49700
C         50.13284        67.06041         0.18621
C         48.92573        67.79091        -0.19413
C         50.11655        69.98117         0.25188
C         48.95360        69.17538        -0.25830
C         50.23948        71.30605        -0.50972
C         48.96224        72.09256        -0.39974
C         50.21113        74.20671        -0.21816
C         48.96969        73.51479        -0.26474
C         51.23979        42.16582         0.05549
C         52.49914        44.23974         0.57418
C         51.29841        43.57838         0.38631
C         52.57100        45.64732         0.85490
C         51.31475        46.46378         0.65353
C         52.60817        48.39787         1.83851
C         51.30266        47.79666         1.36392
C         52.63888        49.90627         1.77394
C         51.38131        50.62919         2.06654
C         52.55121        52.79065         1.74730
C         51.35026        52.09570         1.85438
C         52.55912        54.21091         1.64020
C         51.30762        54.92626         1.64677
C         52.56484        57.08834         1.81318
C         51.28833        56.34160         1.56963
C         52.53301        58.52793         1.37174
C         51.33887        59.19311         1.09238
C         52.53829        61.37156         0.95025
C         51.32141        60.64751         0.91023
C         52.52547        62.79471         0.83676
C         51.32858        63.50031         0.68132
C         52.57930        65.63484         0.60442
C         51.34784        64.95679         0.60547
C         52.61973        67.12630         0.76404
C         51.36206        67.82520         0.31397
C         52.65731        69.95327         0.53722
C         51.39144        69.18790         0.23562
C         52.65653        71.39457         0.07652
C         51.47451        72.08390        -0.13123
C         52.68648        74.21668        -0.09982
C         51.45926        73.52515        -0.18066
C         53.76855        46.31001         1.02524
C         54.97975        48.45544         1.05600
C         53.83128        47.73045         1.25948
C         55.02824        49.88932         1.21869
C         53.79958        50.59028         1.57919
C         55.02973        52.77383         1.29030
C         53.86712        52.06186         1.92863
C         54.99730        54.17275         1.17742
C         53.78630        54.91235         1.43367
C         54.98079        57.00679         1.02370
C         53.79356        56.32648         1.33560
C         54.91178        58.46939         0.64530
C         53.85565        59.24304         1.45043
C         55.01536        61.34277         0.76450
C         53.80160        60.68629         1.02741
C         55.05571        62.76740         0.65921
C         53.82394        63.52211         1.08377
C         55.02527        65.60703         0.32283
C         53.81807        64.94590         0.61878
C         55.00513        67.01212         0.00684
C         53.85822        67.77496         0.19236
C         55.05352        69.90138        -0.18301
C         53.89027        69.20039         0.11106
C         55.11532        71.34218        -0.08914
C         53.90667        72.08385         0.02496
C         55.16927        74.17730        -0.14071
C         53.92073        73.51685        -0.07029
C         56.18276        50.60452         0.96611
C         57.37132        52.74301         0.58503
C         56.20897        52.04707         0.96466
C         57.41177        54.15360         0.57392
C         56.20102        54.88705         0.87490
C         57.51142        57.01007         0.90770
C         56.18986        56.29111         0.85613
C         57.44675        58.46338         0.51391
C         56.24644        59.18260         0.64106
C         57.47294        61.29096         0.39934
C         56.24660        60.59234         0.59638
C         57.49188        62.71533         0.33737
C         56.25606        63.44904         0.43174
C         57.48623        65.54625        -0.04932
C         56.27768        64.88730         0.24582
C         57.50984        66.95249        -0.37856
C         56.22251        67.64225        -0.51265
C         57.55458        69.84657        -0.63320
C         56.25043        69.17781        -0.62833
C         57.57128        71.28295        -0.49381
C         56.35018        72.01309        -0.25947
C         57.62415        74.12004        -0.36107
C         56.37833        73.45257        -0.23695
C         58.58763        54.85675         0.20920
C         59.82982        56.96698        -0.02304
C         58.66017        56.25848         0.27322
C         59.89144        58.38979         0.05657
C         58.66461        59.13563         0.27981
C         59.91985        61.24716         0.07606
C         58.68283        60.55543         0.22479
C         59.93110        62.65133         0.12739
C         58.72867        63.39869         0.22832
C         59.94691        65.52098        -0.14224
C         58.75076        64.83663         0.03759
C         59.94216        66.84003        -0.87413
C         58.69020        67.64518        -0.63960
C         60.00177        69.75533        -0.96615
C         58.73474        69.08218        -0.79290
C         59.99549        71.26082        -1.17702
C         58.77581        71.97558        -0.65021
C         60.07152        74.09128        -0.66778
C         58.81980        73.40718        -0.55745
C         61.09331        59.08541        -0.13104
C         62.37307        61.19419        -0.22693
C         61.15564        60.50355        -0.08133
C         62.45606        62.60734        -0.13029
C         61.22156        63.34777         0.22078
C         62.54623        65.60351         0.00389
C         61.22338        64.86498         0.17318
C         62.41436        66.92601        -0.71294
C         61.23682        67.61407        -0.78636
C         62.48872        69.75753        -1.02834
C         61.22234        69.06032        -1.00172
C         62.51223        71.25371        -1.22978
C         61.26859        71.88971        -0.60102
C         62.52591        74.05447        -0.65380
C         61.29047        73.40157        -0.70407
C         63.62444        63.30654        -0.41976
C         64.88063        65.35826        -0.81700
C         63.70517        64.73765        -0.47942
C         64.95360        66.82064        -1.06074
C         63.68717        67.60440        -1.03080
C         64.95909        69.74892        -0.79443
C         63.70326        69.07758        -0.94072
C         64.96943        71.18276        -0.63146
C         63.77211        71.91609        -0.73067
C         64.97858        74.00104        -0.29684
C         63.76682        73.33421        -0.56454
C         66.28596        67.52052        -0.84970
C         67.37098        69.71089        -0.43419
C         66.19090        69.03017        -0.69731
C         67.40784        71.12846        -0.25262
C         66.19202        71.86532        -0.35247
C         67.43080        73.93826         0.08270
C         66.19584        73.28576        -0.18839
C         68.61117        71.81689         0.01725
C         68.60948        73.20716         0.18260
O         40.38198        70.76612        -2.29452
O         64.29479        67.16198        -2.33775
O         45.80159        58.31522        -1.02406
O         38.18445        52.43903         2.97398
O         42.12994        54.86968         3.10881
O         28.76720        64.21192        -2.07792
O         39.36729        54.61484         3.11209
O         32.51742        58.61006        -2.35802
O         56.03853        68.31638        -1.79979
O         36.64772        56.88547         2.41458
O         50.67330        50.20254         3.32639
O         35.31880        71.01181        -2.37933
O         42.43751        43.02528        -2.81165
O         38.37242        63.38040         1.96580
O         61.24707        64.15140         1.46362
O         41.21919        68.89324         0.63561
O         47.86670        58.94485         2.03187
O         36.14197        64.64275         1.57745
O         47.23547        69.46978        -2.01372
O         38.47919        66.85518        -2.11146
O         62.96182        66.03202         1.34523
H         62.61401        65.34676         1.96597
O         43.83541        50.53095         3.71910
H         44.04187        49.58676         3.94647
O         66.93230        66.96397         0.30632
H         66.35613        67.11006         1.08470
O         47.80810        56.65835        -0.81913
H         47.36556        55.80399        -1.04187
O         37.40308        48.05646         2.68649
H         37.27562        47.08397         2.71992
O         24.23875        64.95303         0.12723
H         24.22785        64.99218        -0.85402
O         40.16306        52.97682        -0.03906
H         40.22074        52.08150        -0.43616
O         54.15014        52.09832         3.37121
H         53.40555        51.65332         3.82994
O         51.34097        46.82501        -0.77816
H         51.39485        45.98825        -1.28723
O         21.94832        69.22957         0.36573
H         22.11717        69.36589        -0.58882
O         33.66624        65.28348        -2.45585
H         33.00568        65.17406        -3.17904
O         43.71585        60.40271        -1.69315
H         43.91015        61.28224        -2.08436
O         61.26754        71.56136         0.80897
H         62.03140        72.01098         1.22759
O         48.57205        41.67785         1.87385
H         48.31190        40.73252         1.87499
O         44.15704        72.57514        -2.33208
H         43.37361        73.12896        -2.53655
O         31.34785        64.52345        -2.74497
H         30.39529        64.26844        -2.85278
O         33.45646        65.46304         1.16352
H         34.18927        65.24864         1.78813
O         43.85284        69.50375         1.18552
H         42.93249        69.23506         1.43244
O         31.85275        61.03312        -2.74419
H         32.21329        60.24096        -3.20659
O         49.08411        50.61112         0.07319
H         48.30334        51.03025        -0.34621
O         50.40910        70.93830        -1.91015
H         50.40259        71.75952        -2.44478
O         57.83565        57.03702         2.34714
H         58.72692        57.43782         2.43559
O         51.18754        39.55733        -0.98260
H         51.06599        39.89934        -1.89147
O         46.62021        60.57962        -1.76712
H         45.97587        59.92586        -2.12901
O         46.48835        63.21258        -1.92998
H         47.31795        63.65939        -2.22883
O         40.53198        41.55951        -4.25826
H         41.29219        42.18742        -4.22627
O         48.72939        55.20317         3.35828
H         48.70349        54.32138         3.78964
O         46.33239        52.05691         3.62097
H         45.49295        51.61782         3.91250
O         35.54604        52.17498         2.78069
H         36.21618        52.03050         3.48685
O         49.87309        70.33344         1.65827
H         49.61138        69.51308         2.12920
O         46.49332        56.55357         2.62326
H         45.79036        56.06232         3.09823
O         48.75324        35.83073        -2.96713
H         48.63528        36.29687        -3.81984
O         48.26393        65.22622         1.83066
H         48.89654        64.85752         2.48244
O         52.70159        70.05924         2.01583
H         51.83230        70.44828         2.27982
O         28.20720        65.18596         1.39540
H         29.12454        65.46140         1.60942
O         54.31884        59.23773         2.84379
H         53.85207        59.95835         3.31866
O         59.96270        71.49753        -2.61135
H         59.11334        71.14915        -2.95381
O         35.82706        59.44226         2.31994
H         35.97280        58.56111         2.74920
O         41.45024        65.23183         1.94758
H         40.64883        64.79480         2.30946
O         31.28692        63.92852         0.84235
H         31.58909        63.22026         1.44901
O         37.93766        69.68649         0.57544
H         38.79657        70.04998         0.88543
O         33.67340        69.15049        -2.93774
H         34.00045        70.00303        -3.31044
O         35.98126        52.46006        -0.82142
H         35.52022        52.99083        -1.50536
O         48.80248        47.34578         3.21138
H         49.59270        46.79943         3.41341
O         46.34921        54.50990        -0.44937
H         46.32047        53.53709        -0.56694
O         62.49079        71.50472        -2.66296
H         63.26334        71.04847        -3.05676
O         45.00695        48.09890         3.39659
H         45.92578        48.13280         3.74543
O         52.71242        57.11887         3.28251
H         53.50077        57.68924         3.46775
O         54.43536        58.49843        -0.73391
H         55.10987        58.06927        -1.30075
O         34.85567        56.16407        -1.80218
H         34.94873        57.07571        -2.16953
O         34.36888        71.58092         1.14166
H         33.67271        72.01964         1.67495
O         59.87097        66.45863        -2.30622
H         59.79189        67.28683        -2.82651
O         48.26610        65.25781        -1.82208
H         47.87581        65.90390        -2.44892
O         35.04782        59.20630        -2.04398
H         34.35703        59.35720        -2.73081
O         31.71755        52.11855        -0.31293
H         32.02151        52.05641        -1.24126
O         40.10239        45.02155         1.96958
H         40.16744        45.74598         2.62867
O         53.92434        63.59585         2.56502
H         54.59065        64.28367         2.77948
O         52.62622        48.08767         3.27927
H         51.94413        48.66997         3.69507
O         52.68810        67.32453         2.22133
H         52.77065        68.30418         2.37410
O         26.23770        65.14218        -1.71152
H         26.94202        64.75869        -2.28844
H         23.08260        75.22070         0.81103
H         25.53727        75.21118         0.54773
H         27.99086        75.20364         0.30622
H         30.44611        75.19457         0.08388
H         32.87754        75.21062        -0.14436
H         35.35905        75.20200        -0.07843
H         37.77311        75.13160         0.38374
H         40.29536        75.10226         0.53800
H         42.81185        75.03710         0.71136
H         45.26473        75.12672         0.45429
H         47.70361        75.26097         0.04526
H         50.20563        75.30552        -0.16736
H         52.69024        75.31660        -0.11643
H         55.19885        75.27642        -0.17584
H         57.65046        75.21899        -0.31950
H         60.07289        75.19223        -0.66102
H         62.55473        75.15456        -0.62352
H         64.97935        75.09347        -0.16772
H         67.44423        75.02987         0.21284
H         22.83484        69.57067         2.18403
H         20.95158        71.47544         1.20530
H         20.94842        73.97207         1.09943
H         25.67350        65.15570         1.60052
H         23.42736        67.13777         0.90404
H         27.07098        60.59381        -0.26941
H         25.75042        62.78067        -0.01356
H         29.60534        56.48872        -0.67021
H         28.35090        58.54205        -0.60580
H         32.32551        52.86667         1.49846
H         30.78754        54.40320        -0.41431
H         34.35210        48.09559         0.02024
H         33.04224        50.12865         0.57096
H         36.88360        43.99123        -0.80560
H         35.60061        46.01718        -0.32842
H         39.49350        40.36534        -2.92169
H         38.17413        42.13303        -1.76959
H         41.89143        36.23875        -3.95213
H         40.71026        38.35988        -3.53149
H         45.17426        32.78804        -4.38037
H         43.08336        34.13790        -4.43991
H         47.24836        33.72112        -3.34536
H         47.75387        35.50019        -1.20580
H         49.67201        37.54620        -1.24263
H         50.20604        39.48609         0.81735
H         52.18233        41.64412        -0.17539
H         53.44037        43.67022         0.52188
H         54.71454        45.75032         0.94313
H         55.88571        47.94675         0.69049
H         57.10294        50.06725         0.69085
H         58.27745        52.17693         0.32217
H         59.46729        54.28688        -0.12762
H         60.73254        56.41514        -0.32730
H         62.02148        58.51819        -0.29692
H         63.29141        60.62393        -0.43251
H         64.52158        62.73482        -0.70455
H         65.77854        64.75748        -1.03001
H         66.95445        67.29027        -1.72114
H         68.30752        69.14043        -0.34749
H         69.55184        71.25346         0.09519
H         69.55490        73.72715         0.39252
