         630
 CSIRO Nanostructure Databank - Neutral Graphene Oxide Data Set
C         23.73985        26.87003        -0.62884
C         23.44691        28.03980        -0.00668
C         23.13558        31.83525         1.04670
C         23.13103        33.12896         0.53308
C         23.17868        35.81385        -0.82364
C         23.13069        37.19246        -1.04933
C         22.92413        40.28516        -0.85691
C         22.93386        41.68670        -0.72939
C         22.95562        44.60213        -0.19200
C         22.98736        45.96607        -0.00075
C         26.34414        24.27309         0.15186
C         25.21182        25.00268        -0.36326
C         26.19978        27.43275        -0.59048
C         25.10440        26.35538        -0.57750
C         25.83599        28.57485         0.34995
C         24.52253        28.80094         0.60222
C         25.57714        31.62123         0.67909
C         24.30985        31.07799         1.05403
C         25.56574        32.99248         0.26160
C         24.32738        33.70885         0.08735
C         25.59725        35.45257        -0.98245
C         24.33342        35.00078        -0.58440
C         25.56019        37.61570        -1.25754
C         24.20831        38.12272        -1.10274
C         25.40030        40.25304        -0.87301
C         24.10177        39.53002        -0.89522
C         25.39512        41.74844        -0.83709
C         24.11047        42.44858        -0.67945
C         25.39942        44.57228        -0.49829
C         24.14532        43.86461        -0.44170
C         25.41079        45.98422        -0.35142
C         24.21315        46.68162        -0.08772
C         25.42873        48.79256         0.24326
C         24.24452        48.09801         0.15471
C         28.81032        22.91584         1.21513
C         28.77070        24.29621         0.82967
C         27.63397        24.69322         0.00954
C         28.46511        27.37887         0.60865
C         27.56239        26.88012        -0.27042
C         28.26041        28.78806         1.08494
C         26.90714        29.43461         0.95229
C         28.05171        31.65056         0.75686
C         26.84327        30.92286         0.79615
C         28.04423        33.04789         0.40080
C         26.81897        33.66443         0.07827
C         27.98121        35.83047        -0.43432
C         26.81743        35.00056        -0.44461
C         27.88248        37.34109        -0.20012
C         26.67437        38.12870        -0.66314
C         27.90281        40.28744        -0.46407
C         26.58886        39.56657        -0.21644
C         27.89245        41.69659        -0.55886
C         26.66949        42.45747        -0.58578
C         27.90056        44.60471        -0.95846
C         26.64086        43.84878        -0.62170
C         27.93422        46.02517        -0.46500
C         26.65842        46.79911        -0.63478
C         27.91748        48.80984         0.22844
C         26.68480        48.16314         0.01335
C         27.98758        50.21065         0.54993
C         31.02175        23.16851         2.15285
C         29.91120        22.35943         1.83247
C         30.78634        24.66135         2.23308
C         29.74691        25.21079         1.24931
C         30.75760        27.48309         1.40838
C         29.69098        26.66761         1.05655
C         30.79450        28.92577         0.91504
C         29.46230        29.63931         1.02716
C         30.56181        31.89622         1.16644
C         29.34907        30.99979         0.93554
C         30.50568        33.20102         0.41858
C         29.26347        33.80787         0.20306
C         30.43607        35.98242        -0.23241
C         29.21043        35.21254        -0.14927
C         30.39421        37.41042        -0.41945
C         29.16111        38.11833        -0.42932
C         30.40197        40.27255        -0.18547
C         29.11055        39.53238        -0.44019
C         30.37505        41.72706        -0.56318
C         29.15122        42.42709        -0.61445
C         30.37632        44.55139        -0.64619
C         29.15529        43.83652        -0.67711
C         30.38732        45.97782        -0.41387
C         29.14330        46.67844        -0.24471
C         30.38441        48.71638         0.42440
C         29.16547        48.08805         0.12586
C         30.42715        50.13429         0.73050
C         29.17957        50.85004         0.73330
C         33.68269        20.64353         2.88712
C         32.43341        21.23006         2.78656
C         33.48757        23.38132         2.22353
C         32.28662        22.60308         2.45415
C         33.40071        24.75699         1.98183
C         32.10417        25.45578         2.22699
C         33.31412        27.62813         1.63331
C         32.02999        26.91202         1.93115
C         33.26947        29.10234         1.43150
C         31.90561        29.77331         1.58371
C         33.00577        31.80851         0.54185
C         31.87115        31.16664         1.00598
C         32.95067        33.21192         0.22515
C         31.72364        33.89936         0.15366
C         32.90259        36.01424        -0.44322
C         31.67536        35.30738        -0.17068
C         32.86761        37.41864        -0.70702
C         31.63278        38.13198        -0.61204
C         32.84497        40.26807        -0.82702
C         31.63684        39.54226        -0.64678
C         32.84166        41.69637        -0.80646
C         31.59827        42.42695        -0.71829
C         32.83743        44.61503        -1.06934
C         31.59067        43.84056        -0.76550
C         32.85909        45.98527        -0.43605
C         31.62927        46.64896        -0.20916
C         32.85348        48.61408         0.61709
C         31.63479        47.99715         0.29473
C         32.83484        49.90318         1.39109
C         31.64286        50.76435         1.02324
C         32.93389        52.80340         1.47941
C         31.78658        52.19290         1.08916
C         36.30625        19.24611         2.80344
C         36.18179        20.69721         2.60411
C         34.85881        21.34980         2.54825
C         35.85210        23.36855         1.49394
C         34.75776        22.70106         2.12309
C         35.70005        24.73041         1.06714
C         34.51716        25.45969         1.42037
C         35.56000        27.53072         0.56563
C         34.46865        26.85016         1.14859
C         35.51554        28.95432         0.32312
C         34.36076        29.73124         0.65684
C         35.41698        31.75486        -0.21068
C         34.26898        31.08567         0.33917
C         35.40809        33.16214        -0.36741
C         34.24833        33.96234         0.17394
C         35.33761        36.00723        -0.76929
C         34.13717        35.33416        -0.43099
C         35.32094        37.41615        -0.98826
C         34.08628        38.13136        -0.92133
C         35.31262        40.25982        -1.17005
C         34.07893        39.55419        -1.00587
C         35.33316        41.70075        -0.99576
C         34.07173        42.43172        -0.84821
C         35.37146        44.58094        -0.94434
C         34.07908        43.82002        -0.82777
C         35.33723        45.97596        -0.35840
C         34.08725        46.63915        -0.17509
C         35.33271        48.66096         0.54965
C         34.09156        47.97473         0.35550
C         35.33187        50.04339         1.00878
C         34.14809        50.64870         1.37658
C         35.41577        52.77621         1.89258
C         34.11253        52.01992         2.00315
C         35.46035        54.09871         2.33252
C         38.51186        19.18165         1.70346
C         37.43916        18.58195         2.47206
C         38.43006        20.54141         1.31964
C         37.34646        21.38351         1.86244
C         38.05827        23.23626         0.39786
C         37.07729        22.68180         1.22332
C         37.79789        24.54609        -0.30690
C         36.73797        25.38175         0.36131
C         37.82939        27.44997        -0.44957
C         36.70331        26.77311         0.14838
C         37.78692        28.82362        -0.65005
C         36.62472        29.59144        -0.29672
C         37.79625        31.70111        -0.89515
C         36.59721        31.00615        -0.51076
C         37.79306        33.12400        -0.98018
C         36.57929        33.84920        -0.76128
C         37.77684        35.97530        -1.16664
C         36.56997        35.28243        -0.88318
C         37.78175        37.40529        -1.26024
C         36.54866        38.11720        -1.18789
C         37.78489        40.24745        -1.50446
C         36.51875        39.54020        -1.29964
C         37.78729        41.77831        -1.26041
C         36.52165        42.39184        -0.88364
C         37.79343        44.52662        -0.34010
C         36.48784        43.78215        -0.29571
C         37.81065        45.89634        -0.17758
C         36.54471        46.62450        -0.09150
C         37.81118        48.71627         0.38918
C         36.55777        48.00781         0.29373
C         37.81080        50.10989         0.73780
C         36.59891        50.75991         1.07069
C         37.84803        52.86297         1.49667
C         36.61483        52.13349         1.47799
C         37.85886        54.22838         1.92080
C         36.65643        54.81954         2.33581
C         40.50745        16.12753         0.80708
C         39.65803        16.96281         1.47412
C         40.38911        18.91277         0.15083
C         39.53127        18.36149         1.13515
C         40.37099        20.28893        -0.18795
C         39.35373        21.10495         0.39890
C         40.25394        23.13291        -0.69758
C         39.22544        22.50241         0.04020
C         40.24957        24.54594        -0.89503
C         39.06740        25.30231        -0.60364
C         40.25086        27.39104        -1.08229
C         39.03920        26.68567        -0.75317
C         40.24769        28.79439        -1.20054
C         38.92711        29.50325        -1.36730
C         40.23511        31.65974        -1.23144
C         39.00307        30.98396        -1.11383
C         40.25938        33.09415        -1.26433
C         39.01197        33.82956        -1.23785
C         40.22702        35.97648        -1.58691
C         38.98605        35.23677        -1.34452
C         40.26228        37.42784        -1.36723
C         39.03781        38.12106        -1.31661
C         40.27211        40.26124        -1.21314
C         39.05358        39.54363        -1.31882
C         40.25089        41.69072        -0.96039
C         39.04898        42.37832        -0.82894
C         40.35150        44.50736        -0.24797
C         39.01964        43.72879        -0.27306
C         40.28684        45.97639        -0.26749
C         39.06303        46.63394        -0.10162
C         40.27902        48.77823         0.16506
C         39.03856        48.05579         0.12765
C         40.28246        50.17498         0.46082
C         39.05403        50.83648         0.76700
C         40.30235        52.94535         1.12381
C         39.06481        52.21424         1.12115
C         40.31180        54.32180         1.51182
C         39.11124        54.96947         1.93125
C         40.37285        57.01192         2.37507
C         39.16891        56.31120         2.35262
C         42.16222        15.75537        -0.98351
C         41.30255        16.59016        -0.29369
C         42.29828        18.63417        -1.57937
C         41.18778        18.00642        -0.67733
C         42.49170        20.10746        -1.51588
C         41.42633        20.86261        -1.01971
C         42.56741        23.06886        -1.78718
C         41.34062        22.32528        -1.27957
C         42.65368        24.52903        -1.55339
C         41.44996        25.23842        -1.25930
C         42.69612        27.36477        -1.44388
C         41.46966        26.66258        -1.26030
C         42.70466        28.78780        -1.38959
C         41.46720        29.50252        -1.31311
C         42.71808        31.63062        -1.29531
C         41.47847        30.93825        -1.30763
C         42.74019        33.05689        -1.20900
C         41.49847        33.75871        -1.26127
C         42.70929        35.96004        -0.99326
C         41.52856        35.20929        -1.47689
C         42.72665        37.41587        -1.11195
C         41.51480        38.11911        -1.26893
C         42.74793        40.27322        -1.06995
C         41.50689        39.55720        -1.18098
C         42.72337        41.67214        -1.02060
C         41.50500        42.41126        -0.87150
C         42.73876        44.61049        -1.10637
C         41.52834        43.80331        -0.72012
C         42.74085        46.03145        -0.59715
C         41.52572        46.70184        -0.33946
C         42.75222        48.82277        -0.07070
C         41.51233        48.11032        -0.08981
C         42.74844        50.22683         0.21264
C         41.52178        50.89784         0.47524
C         42.74895        53.04717         0.73668
C         41.52108        52.29941         0.78040
C         42.73416        54.42971         1.02700
C         41.53997        55.05294         1.48929
C         42.80897        57.13821         1.97907
C         41.56129        56.40772         1.94585
C         43.11509        16.28586        -1.89458
C         45.31384        18.76007        -2.10112
C         43.26775        17.64187        -2.06534
C         45.11337        20.10414        -1.75634
C         43.77708        20.76994        -1.96674
C         45.10163        22.98696        -1.73514
C         43.82528        22.27747        -1.98880
C         45.10650        24.44294        -1.95246
C         43.86386        25.21291        -1.71802
C         45.15986        27.35079        -1.65897
C         43.92209        26.64047        -1.61928
C         45.17192        28.78169        -1.55211
C         43.94415        29.49747        -1.43643
C         45.20066        31.62842        -1.36418
C         43.96152        30.92071        -1.36065
C         45.21473        33.05743        -1.26475
C         43.99091        33.74614        -1.15668
C         45.26794        35.94972        -0.94351
C         44.00415        35.18946        -0.85609
C         45.25181        37.35018        -0.88525
C         43.96395        38.09985        -0.58452
C         45.22671        40.21013        -1.01856
C         44.00767        39.55838        -0.95295
C         45.23553        41.67477        -1.21218
C         43.99198        42.39438        -0.83105
C         45.28299        44.62591        -0.89424
C         44.01074        43.87770        -0.75028
C         45.22684        46.01893        -0.75987
C         43.98100        46.72386        -0.56305
C         45.23145        48.83508        -0.16578
C         43.97452        48.12929        -0.29841
C         45.22545        50.25627         0.10889
C         43.99335        50.94913         0.25703
C         45.23094        53.06148         0.46150
C         43.99057        52.36010         0.46930
C         45.26806        54.53328         0.64710
C         43.95928        55.24967         0.90435
C         43.95216        56.59653         1.50198
C         47.56706        18.76705        -1.26945
C         46.51416        18.08006        -1.85009
C         47.48338        20.16412        -1.08122
C         46.27103        20.85050        -1.38345
C         47.52407        23.02730        -1.23453
C         46.27244        22.30761        -1.43746
C         47.61216        24.42387        -1.36733
C         46.42986        25.17921        -1.79778
C         47.62682        27.30547        -1.49499
C         46.41249        26.64168        -1.62212
C         47.66888        28.75936        -1.88338
C         46.40116        29.50361        -1.56045
C         47.69959        31.62588        -1.48641
C         46.43093        30.90237        -1.45548
C         47.69584        33.05855        -1.35841
C         46.47721        33.77913        -1.23160
C         47.72439        35.92007        -0.98453
C         46.48155        35.20811        -1.08827
C         47.72019        37.37076        -0.87667
C         46.48267        38.08531        -0.92298
C         47.71807        40.25232        -0.94315
C         46.48643        39.51336        -0.95892
C         47.76004        41.68175        -0.97298
C         46.52133        42.44771        -1.19798
C         47.74872        44.57618        -0.76923
C         46.50606        43.90578        -0.94760
C         47.75676        45.99314        -0.59008
C         46.50534        46.79258        -0.90947
C         47.68107        48.82988         0.09646
C         46.43441        48.15155        -0.27396
C         47.71137        50.29102         0.07649
C         46.46123        50.97800         0.12183
C         47.70448        53.19792         0.04109
C         46.44047        52.39169         0.25427
C         47.70086        54.41873         0.93831
C         46.55651        55.08446         1.14656
C         49.85324        20.23433        -0.18673
C         48.66178        20.91556        -0.68731
C         50.04203        22.97099        -0.77261
C         48.68373        22.29651        -0.82133
C         50.02876        24.48172        -0.76103
C         48.82556        25.16163        -1.09088
C         50.05602        27.30313        -1.02252
C         48.83905        26.58343        -1.22532
C         50.07048        28.74045        -1.20559
C         48.92736        29.48238        -1.49278
C         50.19544        31.67213        -1.88047
C         48.91715        30.91698        -1.55548
C         50.18787        33.10802        -1.39986
C         48.96259        33.77314        -1.28140
C         50.17229        35.87314        -0.67269
C         48.92433        35.19371        -1.02927
C         50.16599        37.40243        -0.46936
C         48.91787        38.11226        -0.74691
C         50.19040        40.24979        -0.68284
C         48.94862        39.53379        -0.80219
C         50.19930        41.66886        -0.67018
C         48.96441        42.39038        -0.78822
C         50.20159        44.52983        -0.54859
C         48.97145        43.83355        -0.70652
C         50.20336        45.94568        -0.38989
C         48.96511        46.64616        -0.35170
C         50.23475        48.83029        -0.07118
C         48.98166        48.06972         0.05146
C         50.21091        50.23979         0.02403
C         48.96127        50.97275         0.10277
C         50.21182        53.06559         0.06905
C         48.98256        52.39144         0.11934
C         50.89023        20.91555         0.33803
C         52.22887        23.04919         0.47634
C         50.84540        22.42529         0.42031
C         52.45397        24.43231        -0.07376
C         51.22600        25.18638        -0.51083
C         52.44448        27.35146        -0.29002
C         51.23089        26.60818        -0.61380
C         52.50933        28.74957        -0.49119
C         51.38111        29.42235        -1.17264
C         52.72329        31.62016        -1.13835
C         51.46760        30.87525        -1.51451
C         52.74716        33.12102        -1.21728
C         51.47503        33.89789        -1.61283
C         52.61932        35.95477        -0.69061
C         51.45418        35.25574        -0.95522
C         52.63672        37.38551        -0.46662
C         51.44111        38.11564        -0.54204
C         52.66736        40.23614        -0.46109
C         51.43863        39.53994        -0.57316
C         52.66364        41.67043        -0.45068
C         51.43603        42.38400        -0.55459
C         52.67253        44.52442        -0.41493
C         51.44613        43.81286        -0.50780
C         52.66814        45.96700        -0.38392
C         51.44077        46.67237        -0.31916
C         52.68623        48.82438        -0.28310
C         51.44736        48.10957        -0.23641
C         52.68536        50.23884        -0.13070
C         51.45461        50.95790        -0.01330
C         51.41656        52.37632         0.02063
C         54.02280        23.39604         2.14509
C         53.09542        22.59033         1.58049
C         54.40444        24.69583         1.63588
C         53.78421        25.15905         0.26882
C         54.76925        27.43353         0.28954
C         53.61846        26.66982         0.13840
C         54.78212        28.84190         0.42536
C         53.65365        29.51582        -0.11987
C         54.87757        31.62734         0.14081
C         53.75198        30.92795        -0.32705
C         54.92004        33.07225         0.04518
C         53.83980        33.81470        -0.49213
C         54.94853        35.93176         0.07808
C         53.84972        35.22685        -0.47233
C         55.09924        37.37322        -0.07533
C         53.88643        38.08233        -0.33187
C         55.15334        40.16684        -0.25116
C         53.90100        39.50088        -0.34777
C         55.11556        41.62417        -0.01831
C         53.88070        42.38281        -0.28444
C         55.16709        44.49540        -0.34316
C         53.90291        43.79213        -0.31545
C         55.14972        45.93684        -0.64826
C         53.89509        46.70492        -0.48303
C         55.19678        48.87048        -0.76922
C         53.91325        48.10128        -0.46603
C         55.12762        50.30357        -0.32698
C         53.95893        50.92719        -0.07497
C         55.96105        25.02310         3.62897
C         55.41599        25.37464         2.31432
C         56.51115        27.60797         2.55110
C         56.00578        26.59116         1.79635
C         56.77837        28.92975         1.98643
C         55.87304        29.54949         1.04393
C         57.04691        31.68428         1.40251
C         55.91990        30.95941         0.88482
C         57.15679        33.09154         1.18814
C         55.98293        33.77202         0.68181
C         57.69678        36.09265         0.83647
C         55.85420        35.16428         0.82018
C         57.61317        37.22995        -0.00003
C         56.36333        38.03347        -0.11507
C         57.62334        40.24389        -0.49383
C         56.38085        39.46079        -0.30005
C         57.66365        41.64098        -0.23547
C         56.42012        42.38250         0.06327
C         57.64129        44.53795        -0.16766
C         56.38340        43.83153        -0.22426
C         57.65755        45.94645        -0.09777
C         56.47552        46.70513        -0.49642
C         57.54743        48.75398         0.30217
C         56.42707        48.14399        -0.24819
C         56.66343        25.91115         4.36810
C         58.23385        27.92141         4.24830
C         56.84250        27.36481         4.00075
C         58.66307        29.00639         3.56595
C         57.84477        29.65377         2.54054
C         59.28447        31.70983         2.38782
C         58.08436        31.00502         2.11135
C         59.47091        33.00498         1.93060
C         58.41048        33.74162         1.35306
C         59.77286        35.31324        -0.08244
C         58.67010        35.07296         0.75468
C         59.81649        36.48757        -0.83893
C         58.74611        37.39640        -0.82435
C         59.98692        40.43267        -1.19875
C         58.79490        39.70572        -1.08482
C         60.04639        41.75066        -0.76317
C         58.86847        42.38715        -0.32897
C         60.03752        44.52760         0.30745
C         58.86317        43.81813        -0.03762
C         60.00937        45.89114         0.55384
C         58.81688        46.64130         0.34286
C         58.73304        48.04135         0.56104
O         55.72522        41.98862         1.28952
O         32.07874        26.43357         3.33323
O         27.88623        25.69337        -0.95218
O         52.79478        23.22511        -0.85133
O         43.17407        35.49346         0.34343
O         37.22353        21.44188         3.32038
O         50.09543        36.48185         0.66831
O         44.60655        55.25757        -0.44185
O         39.76992        43.90962         0.96983
O         24.13621        29.78151         1.52464
O         53.28189        32.31322        -2.31359
O         37.79913        41.20807        -2.60680
O         44.00884        43.09109         0.48231
O         40.97003        18.26136        -2.09420
O         27.40137        28.96170         2.26256
O         45.82507        42.10287        -2.48249
O         41.51586        22.67668        -2.70564
O         41.01796        35.59237        -2.78624
O         25.60300        40.98039        -2.11512
O         43.77223        21.49793        -3.23851
O         56.65669        35.85501         1.74876
O         48.30321        48.26708         1.35095
O         58.80822        38.45897        -1.72518
O         55.93690        46.29672        -1.83217
O         25.67242        36.42115        -1.97879
O         55.99152        26.77004         0.40777
O         44.35021        18.05547        -2.83258
O         33.72925        28.55922         2.71734
O         51.76519        29.88233        -2.55371
O         45.89523        24.82303        -3.13127
O         47.72909        28.73325        -3.36494
H         46.97451        28.19000        -3.68019
O         33.87281        51.83213         3.45556
H         34.69991        51.46990         3.83984
O         27.73859        37.36161         1.28938
H         28.59889        37.07952         1.67090
O         38.60355        29.37959        -2.80690
H         39.32349        29.81879        -3.30808
O         42.76058        44.69849        -2.57258
H         42.00812        45.25858        -2.85733
O         50.69459        22.54315        -1.99693
H         50.21199        22.94233        -2.74997
O         50.17476        22.78850         1.65151
H         49.31248        22.32243         1.67268
O         26.32425        39.65083         1.21125
H         26.88669        38.96032         1.64286
O         55.33433        48.90635        -2.22690
H         55.49605        47.97314        -2.51453
O         34.59162        34.20622         1.60104
H         35.42720        34.72086         1.61151
O         31.58010        29.85021         2.98939
H         32.28771        29.34334         3.46679
O         54.75162        24.78364        -0.73160
H         54.48525        23.89232        -1.06213
O         27.85900        44.71280        -2.45576
H         28.73942        45.04131        -2.74194
O         35.65493        44.71857        -2.36372
H         34.81690        45.02680        -2.78593
O         30.16958        24.82941         3.54674
H         30.56467        25.64799         3.93725
O         50.20742        31.76419        -3.34863
H         50.57572        30.90272        -3.66556
O         51.53409        34.16318        -3.04177
H         51.32060        33.30923        -3.49572
O         55.93541        28.11473         4.86823
H         56.06548        29.06556         4.66657
O         37.22442        24.18120        -1.61786
H         37.92312        23.70915        -2.12048
O         32.82979        44.86936        -2.55161
H         32.64970        44.00657        -2.98510
O         47.64674        53.70168        -1.33385
H         46.81392        54.21387        -1.42636
O         26.58330        47.08857        -2.08817
H         26.77394        46.23094        -2.54729
O         46.63642        47.07985        -2.36807
H         46.47255        46.23692        -2.84443
O         30.46697        32.28280         2.58115
H         30.73643        31.48737         3.10589
O         31.16077        28.86339        -0.49629
H         30.46814        28.35532        -0.97003
O         30.51812        40.28579         1.30037
H         31.33919        40.77679         1.52056
O         26.24835        27.97168        -1.94869
H         26.50272        27.23384        -2.54298
O         36.14163        43.65790         1.11674
H         36.94533        43.38158         1.60593
O         32.60998        49.51110         2.79602
H         32.77306        50.32731         3.33341
O         43.82862        38.08109         0.88553
H         43.66491        37.13623         1.13203
H         22.93705        26.21812        -1.00611
H         22.41433        28.39889         0.09323
H         22.20562        31.37194         1.40019
H         22.18456        33.68060         0.46387
H         22.19869        35.33827        -0.66072
H         22.12001        37.63193        -1.03438
H         21.95237        39.77457        -0.92484
H         21.96049        42.19327        -0.66757
H         21.99197        44.07794        -0.13841
H         22.05933        46.51730         0.20852
H         26.12008        23.41686         0.80393
H         24.26015        24.44352        -0.36596
H         25.39280        49.84853         0.54599
H         23.29357        48.61314         0.35437
H         27.98611        22.26458         0.89220
H         27.06145        50.79800         0.60746
H         29.95986        21.26863         1.95847
H         29.17759        51.92652         0.95303
H         33.74736        19.59674         3.21274
H         31.54480        20.62944         3.02255
H         32.99665        53.90103         1.46003
H         30.94699        52.82118         0.75487
H         35.47457        18.69033         3.25856
H         34.54452        54.58411         2.69694
H         37.48645        17.50637         2.68650
H         36.63547        55.85993         2.68450
H         40.58547        15.07038         1.09977
H         39.06651        16.55530         2.30367
H         40.39280        58.05334         2.72665
H         38.25961        56.82846         2.68495
H         42.18460        14.68147        -0.75114
H         42.80290        58.16049         2.38486
H         43.83702        15.61149        -2.37273
H         44.87821        57.18726         1.47729
H         48.49889        18.22845        -1.05943
H         46.60875        17.02280        -2.12752
H         48.65003        54.80772         1.33629
H         46.55187        56.01757         1.72912
H         49.88620        19.13650        -0.18833
H         50.22571        54.16401         0.03828
H         51.74500        20.37298         0.76760
H         52.34679        52.95602        -0.03647
H         54.56653        23.00960         3.01860
H         52.88853        21.60875         2.03085
H         56.05866        50.88779        -0.31900
H         53.97660        51.99409         0.18729
H         55.81006        24.01050         4.03080
H         57.54170        49.83441         0.50376
H         57.04487        25.60258         5.35383
H         58.84384        27.49680         5.05996
H         59.63620        29.45313         3.81924
H         60.11030        31.20011         2.90276
H         60.44650        33.49263         2.06868
H         60.56777        34.56183        -0.18500
H         60.65571        36.67279        -1.52144
H         60.86278        39.95174        -1.65272
H         60.98512        42.31407        -0.84652
H         60.98164        43.98001         0.43732
H         60.92074        46.41148         0.88083
H         59.61429        48.58002         0.93616
