         269
 CSIRO Nanostructure Databank - Neutral Graphene Oxide Data Set
C        -11.21803         0.81024        -0.36017
C        -10.02275         1.72595        -0.17926
C         -8.73198         0.89364        -0.01788
C         -7.42111         1.61500         0.09020
C         -6.11837         0.85341         0.14787
C         -4.78462         1.50399        -0.03201
C         -3.65616         0.72291         0.59034
C         -2.42175         1.48964         0.96970
C         -1.13425         0.70564         0.96931
C          0.17788         1.43593         0.84680
C          1.34645         0.70135         0.27497
C          2.52742         1.50811        -0.00976
C          3.80720         0.82087        -0.30580
C          5.06524         1.46077         0.26174
C          6.28101         0.77452        -0.33078
C          7.53417         1.54734        -0.56276
C          8.82517         0.79309        -0.69808
C         10.08892         1.50670        -0.28982
C         11.22473         0.67492         0.17039
C         -9.81006         2.89778        -1.17484
C         -8.61780         3.75868        -0.75192
C         -7.35737         2.99432        -0.50084
C         -6.01912         3.65743        -0.66337
C         -4.73636         2.96974        -0.24672
C         -3.63114         3.76961         0.35972
C         -2.43590         3.03418         0.91671
C         -1.11141         3.76939         0.99790
C          0.16157         2.96573         0.86686
C          1.41970         3.69140         0.45273
C          2.60242         2.87992         0.10590
C          3.85677         3.58364        -0.12553
C          5.06791         2.93718        -0.05073
C          6.32938         3.65988        -0.09803
C          7.54451         2.99042        -0.20631
C          8.81255         3.64219         0.04212
C          9.97874         2.92968         0.11448
C         -8.56116         5.09773        -0.95055
C         -7.28987         5.87676        -0.97335
C         -5.96560         5.14609        -0.84559
C         -4.76027         5.88200        -0.37954
C         -3.62061         5.22979         0.07409
C         -2.43184         5.98769         0.50099
C         -1.05811         5.32633         0.78448
C         -0.04683         5.67727        -0.35611
C          1.34401         5.10467        -0.04937
C          2.56836         5.74980        -0.59742
C          3.88392         5.00674        -0.62130
C          5.06764         5.76382        -0.04084
C          6.27597         5.11261         0.05239
C          7.53109         5.86275         0.14810
C          8.84181         5.12666         0.34567
C         -7.27682         7.33119        -0.75466
C         -6.08077         8.01727        -0.70545
C         -4.81174         7.32411        -0.52667
C         -3.63710         8.06385        -0.45484
C         -2.40738         7.43917         0.05100
C         -1.13364         8.06355        -0.35151
C          0.01450         7.18525        -0.68556
C          1.32097         7.85119        -1.03910
C          2.57702         7.07620        -0.88052
C          3.80525         7.88227        -0.62150
C          4.99883         7.24109         0.01125
C          6.28253         8.03852         0.24766
C          7.53435         7.21606         0.05249
C         -6.04396         9.46473        -0.78641
C         -4.87172        10.15907        -0.82536
C         -3.60300         9.48296        -0.68104
C         -2.37213        10.13596        -0.72032
C         -1.14116         9.39779        -0.70910
C          0.10714        10.11998        -1.17597
C          1.40544         9.34054        -1.03553
C          2.59506         9.98146        -1.09004
C          3.89019         9.22137        -1.30863
C          5.16857         9.96001        -0.98165
C          6.25795         9.38641        -0.44795
C        -11.19289        -0.53327        -0.34523
C         -9.96989        -1.35798        -0.68189
C         -8.68179        -0.55341        -0.45268
C         -7.40566        -1.30005        -0.27267
C         -6.12160        -0.62165         0.08887
C         -4.85813        -1.22606        -0.51042
C         -3.59949        -0.71589         0.18076
C         -2.43578        -1.45963         0.24732
C         -1.17641        -0.79809         0.71799
C          0.14441        -1.51158         0.44345
C          1.33269        -0.67683         0.08316
C          2.38452        -1.26910        -0.88670
C          3.77167        -0.61778        -0.66921
C          4.99072        -1.41865        -0.30079
C          6.30631        -0.71150        -0.17021
C          7.56134        -1.45959        -0.45799
C          8.79683        -0.71603        -0.72013
C         10.11106        -1.49206        -0.39911
C         11.23811        -0.67433         0.10393
C         -9.88209        -2.77188        -0.11461
C         -8.72902        -3.44522         0.09156
C         -7.39351        -2.74050         0.19958
C         -6.27137        -3.51863        -0.53341
C         -4.93689        -2.75048        -0.67216
C         -3.66475        -3.51830        -0.58702
C         -2.40281        -2.84339        -0.18557
C         -1.22514        -3.61202        -0.22243
C          0.12571        -3.02136         0.15284
C          1.13651        -3.54872        -0.87499
C          2.46839        -2.80635        -0.93089
C          3.76573        -3.56660        -0.86148
C          5.11522        -2.82667        -0.83609
C          6.28269        -3.57547        -0.15004
C          7.58017        -2.83883        -0.42056
C          8.80228        -3.58879        -0.21330
C          9.98998        -2.90754        -0.03224
C         -8.71438        -4.91255         0.50445
C         -7.37489        -5.63755         0.34043
C         -6.05642        -4.87372         0.24965
C         -4.90475        -5.64774        -0.41021
C         -3.72853        -5.01059        -0.59362
C         -2.47789        -5.64415        -1.16903
C         -1.23399        -4.97646        -0.61267
C         -0.02103        -5.74023        -0.55172
C          1.26368        -5.03274        -0.54575
C          2.43580        -5.69067        -0.34935
C          3.73004        -4.97767        -0.33550
C          5.01438        -5.72124        -0.11735
C          6.29176        -5.03788        -0.63771
C          7.56525        -5.76220        -0.23690
C          8.70823        -5.04871        -0.05783
C         -7.30677        -6.96963         0.52766
C         -5.95662        -7.65836         0.58231
C         -5.11448        -7.13259        -0.61181
C         -3.81295        -7.90379        -0.84957
C         -2.51561        -7.18432        -1.08061
C         -1.19527        -7.96984        -0.95614
C         -0.03363        -7.12449        -0.50158
C          1.13056        -7.84118         0.10186
C          2.45913        -7.09915         0.18673
C          3.69728        -7.89065        -0.12509
C          5.04393        -7.23033         0.12866
C          6.17119        -7.89401        -0.66669
C          7.55597        -7.29074        -0.30859
C         -6.05497        -9.16121         0.52493
C         -5.06747        -9.92911         0.05324
C         -3.76066        -9.40901        -0.49803
C         -2.59826        -9.66866         0.47433
C         -1.27613        -9.24423        -0.11881
C         -0.13032        -9.94971         0.07109
C          1.16926        -9.32315        -0.15351
C          2.36344        -9.96354        -0.29907
C          3.63890        -9.24970        -0.29339
C          4.89306       -10.00637        -0.38870
C          6.09330        -9.39861        -0.48540
O         -3.31876        -7.68711        -2.21509
O         -2.82546        -8.87002         1.63598
H         -2.11081        -9.03249         2.28451
O          0.42372         7.35004        -2.10000
O          9.64612        -1.24492        -1.76263
O          5.32817        -7.41652         1.52872
H          4.66056        -6.89394         2.02813
O         -6.61824         2.93789        -1.78108
O         -0.52890         4.99279        -1.53314
H         -0.20612         5.50418        -2.31395
O          4.01076         0.39736        -1.70098
O         -0.83186        -8.39495        -2.29821
H         -1.64958        -8.78812        -2.68417
O          5.54379        -1.15664         1.00661
O          3.94515         7.87027         0.84820
O         -3.34387         0.98593         1.98261
O          0.20489        11.39547        -0.53664
H          0.22941        11.25475         0.43201
O         -0.42099        -1.41479         1.79141
O          3.13048        -3.32912        -2.15113
O         -6.74895        -3.81969        -1.83759
H         -5.97272        -3.82639        -2.44484
O          0.51893        -3.38801        -2.16174
H          1.22516        -3.44253        -2.84257
O         -4.23144        -3.08560        -1.91452
O         -8.17192         1.27098         1.28711
O          1.67796         4.81437         1.35414
O         -7.09702        -2.59695         1.59502
H         -6.57194        -3.38928         1.91977
O          3.95639         8.91717        -2.73378
H          3.91287         9.76116        -3.22935
O         -0.33424         3.41515         2.16735
O         -2.64887         7.05587         1.45989
O          0.97412        -7.67029         1.59497
O         -4.78793        -0.65109        -1.83750
H         -4.31229        -1.29729        -2.41249
O          8.00471        -7.86741         0.91309
H          8.79994        -7.38626         1.21756
O          6.59575         1.24051        -1.66766
H          9.00754         6.18860         2.00696
O         -0.57532         5.92876         1.97676
H         -0.12804         5.22927         2.51209
O          1.77423        -3.12905         1.81351
H          1.54972        -2.63612         2.64183
O         -3.45679         3.55267         1.81016
O         -9.75248        -5.63411        -0.15933
H         -9.56294        -5.62378        -1.11984
O         -5.58926        -4.62531         1.55093
O          6.31956         1.74661         2.21426
H          6.13748         1.82982         3.18196
O         -2.42260        -5.30157        -2.57896
H         -2.87473        -6.02627        -3.06855
O         -7.78686        -0.86087        -1.60133
O          4.35077        -5.06023         0.99445
O         -4.34206         2.03787        -1.31578
O        -10.13274        -1.57922        -2.11275
H         -9.22496        -1.63412        -2.49523
O         -6.44199         5.54817        -2.15814
O          0.48548        -3.68601         1.43410
O          5.89006        -7.64246        -2.05832
H          6.62547        -7.99231        -2.60151
O          9.71280         1.33722        -1.71058
O         -6.02005         0.01469         1.36524
O          9.24352         5.28259         1.71800
O          5.52775        -2.62838        -2.21620
H          4.70284        -2.58492        -2.76052
O          5.02004         1.28230         1.72197
O         -5.29814        -7.30616         1.81292
H         -5.37261        -6.31652         1.93847
O          2.30094        -7.01132         1.67841
O          6.14601        -3.54467         1.28010
H          6.69684        -4.25977         1.65970
O          6.32640         8.36534         1.67123
H          5.39053         8.51409         1.94506
O         -5.92263        -7.31744        -1.79680
H         -5.33427        -7.17829        -2.57122
O        -10.30168         2.42721         1.05781
H        -10.06915         1.84009         1.80916
O         -0.29642         0.95519         2.13262
O         -3.43814       -10.15267        -1.68947
H         -4.13902        -9.98161        -2.35239
O          6.26229        -5.10526        -2.07946
H          6.28725        -4.18688        -2.44797
O          4.17918         4.90810        -2.06181
H          4.96555         4.33118        -2.17583
O         -9.53044         2.41147        -2.48835
H         -8.56643         2.46556        -2.66428
O          1.90379        -0.88391        -2.19175
H          2.47380        -0.13531        -2.49863
H         12.10261        -1.21986         0.51376
H         12.08256         1.19972         0.61819
H         10.90308         3.44823         0.41208
H          9.62444         5.60950        -0.31544
H          8.49369         7.75843         0.07892
H          7.17139         9.99216        -0.33261
H          5.24043        10.99328        -1.36081
H          2.60703        11.08305        -1.12758
H         -0.02087        10.32927        -2.27500
H         -2.33012        11.22028        -0.89769
H         -4.87687        11.25263        -0.94118
H         -7.00166         9.99792        -0.87928
H         -8.22899         7.88229        -0.78254
H         -9.48138         5.64381        -1.21446
H        -10.74153         3.51979        -1.21099
H        -12.19316         1.31528        -0.26504
H        -12.15107        -1.07729        -0.34855
H        -10.82446        -3.34503        -0.10843
H         -8.96092        -4.94470         1.60314
H         -8.22432        -7.55693         0.69291
H         -6.97041        -9.63169         0.91736
H         -5.17534       -11.02538         0.05075
H         -2.56149       -10.75986         0.74965
H         -0.16271       -10.95292         0.52744
H          2.38838       -11.05779        -0.41399
H          4.82715       -11.10448        -0.34797
H          7.01613        -9.99443        -0.55283
H          8.27379        -7.58894        -1.13887
H          9.65292        -5.58182         0.14518
H         10.87815        -3.43380         0.34969
