         621
 CSIRO Nanostructure Databank - Neutral Graphene Oxide Data Set
C          5.83530        31.76293        -0.18016
C          5.86418        33.09750         0.04982
C          8.31634        27.40518         0.10346
C          8.29958        28.85209         0.04198
C          7.08861        29.55225         0.00675
C          8.38212        31.72376        -0.49425
C          7.06360        30.96077        -0.38541
C          8.30992        33.27040        -0.61811
C          7.08194        33.88866         0.02395
C          8.29539        36.01177         0.40338
C          7.07732        35.21910         0.34369
C          8.27879        37.42463         0.49286
C         10.74920        23.07170         0.29230
C         10.72549        24.48998         0.32339
C          9.52131        25.22083         0.20679
C         10.77923        27.35407         0.21167
C          9.48372        26.64507         0.15400
C         10.78495        28.85950         0.27540
C          9.52100        29.60539         0.12770
C         10.76994        31.72782         0.34309
C          9.58855        31.02054         0.02161
C         10.89834        33.16913         0.15079
C          9.60557        33.96969        -0.21502
C         10.73689        35.98061         0.77348
C          9.53133        35.32963         0.29139
C         10.71661        37.50280         0.90563
C          9.46825        38.19155         0.53383
C         10.76008        40.28682         0.34271
C          9.53292        39.57897         0.31835
C         10.77757        41.69324         0.19608
C         13.27023        18.74816         0.34443
C         13.23846        20.18054         0.42534
C         12.01608        20.92161         0.30213
C         13.22156        23.08462         0.34946
C         11.95366        22.32548         0.32524
C         13.22348        24.52000         0.66249
C         11.97669        25.22089         0.55518
C         13.19767        27.32979         0.98986
C         11.96573        26.60394         0.64146
C         13.18454        28.81324         1.18904
C         11.88743        29.54386         1.00512
C         13.21540        31.70950         1.12530
C         11.90349        31.04256         1.00232
C         13.16124        33.17729         1.42645
C         12.02103        33.89638         0.76737
C         13.23108        36.03240         1.08125
C         12.03281        35.27868         0.81165
C         13.22800        37.45386         0.98115
C         12.01127        38.18897         0.80984
C         13.25592        40.26521         0.51568
C         12.01764        39.56750         0.54071
C         13.28365        41.70601         0.06502
C         11.96844        42.44503         0.16665
C         13.17062        44.61547         0.03013
C         11.97283        43.84096         0.03090
C         13.20256        45.96726        -0.30330
C         15.81747        14.47215        -0.13779
C         15.77699        15.84184         0.11478
C         14.42731        16.51510         0.30769
C         15.71054        18.71029         0.51722
C         14.46169        18.03268         0.37638
C         15.70099        20.13946         0.74761
C         14.46198        20.84801         0.67388
C         15.65074        23.05248         1.16503
C         14.50591        22.31378         0.57324
C         15.69908        24.51948         1.00638
C         14.45442        25.20543         0.81624
C         15.68570        27.34749         0.84052
C         14.49158        26.63402         0.84974
C         15.59969        28.82086         0.44104
C         14.43736        29.56829         1.04220
C         15.71137        31.68525         1.10119
C         14.42024        30.97902         1.08072
C         15.67991        33.13023         1.47731
C         14.46276        33.91660         1.27182
C         15.72184        36.06095         1.31846
C         14.47735        35.31331         1.23751
C         15.69908        37.48873         1.19170
C         14.47179        38.17821         0.99289
C         15.72218        40.33968         0.83467
C         14.46407        39.59729         0.77777
C         15.71370        41.73062         0.76847
C         14.43582        42.46707         0.68106
C         15.68707        44.69204         0.32514
C         14.41546        43.96978         0.52589
C         15.67167        45.97479        -0.15859
C         14.42764        46.71017        -0.36258
C         15.65258        48.86490        -0.66903
C         14.44881        48.09387        -0.58309
C         15.68777        50.24905        -0.77425
C         18.27481        10.28255        -1.12788
C         18.23578        11.64073        -0.83901
C         17.03051        12.37247        -0.65057
C         18.27888        14.49109        -0.41295
C         17.03230        13.74835        -0.36807
C         18.32263        15.89424         0.15225
C         16.97659        16.60190         0.21919
C         18.22017        18.74705         0.53370
C         16.94066        17.99094         0.41728
C         18.16822        20.23263         0.48614
C         16.90833        20.85747         0.89384
C         18.21202        23.02229         1.26244
C         16.94988        22.26292         1.27272
C         18.12592        24.47273         1.55808
C         16.88817        25.22183         1.20000
C         18.17322        27.35122         0.98130
C         16.93219        26.65174         0.99917
C         18.22095        28.80388         0.65178
C         16.92673        29.58469         0.49087
C         18.19088        31.78473         0.79412
C         16.89674        31.03997         0.84459
C         18.23614        33.20473         1.25657
C         16.97525        33.90374         1.54793
C         18.19064        36.05963         1.57985
C         16.95288        35.37377         1.45248
C         18.16288        37.52785         1.70446
C         16.92660        38.24268         1.29634
C         18.20751        40.41982         1.40270
C         16.94537        39.61543         1.11155
C         18.20746        41.70152         0.59515
C         16.96655        42.50799         0.84933
C         18.22753        44.59342         0.07040
C         16.96815        43.98593         0.57810
C         18.22447        45.96207        -0.26498
C         16.93705        46.64237        -0.52055
C         18.20382        48.86080        -0.62261
C         16.93264        48.12364        -0.76987
C         18.17102        50.24242        -0.66521
C         16.93105        50.97873        -0.85781
C         18.21918        53.09403        -1.16575
C         16.98062        52.35204        -1.08769
C         18.26168        54.47214        -1.46190
C         20.80998         6.12388        -2.01235
C         20.78262         7.51921        -1.90060
C         19.55280         8.21577        -1.61333
C         20.74304        10.35782        -1.45598
C         19.50965         9.57882        -1.36410
C         20.71001        11.71069        -1.26010
C         19.53991        12.35785        -0.58812
C         20.70269        14.60125        -0.89393
C         19.46285        13.86178        -0.73611
C         20.65741        16.09320        -0.88601
C         19.33280        16.78352        -0.58827
C         20.74012        18.94149        -0.04675
C         19.51364        18.10967         0.14672
C         20.74214        20.30634         0.31983
C         19.44531        21.02031         0.47657
C         20.66630        23.14998         1.03325
C         19.42036        22.41948         0.97708
C         20.69808        24.50339         1.36204
C         19.42579        25.23419         1.61668
C         20.60598        27.36407         1.32012
C         19.39026        26.68382         1.30215
C         20.65830        28.75494         0.95803
C         19.50724        29.52918         0.78657
C         20.72981        31.79040         1.03047
C         19.50448        31.02341         0.63552
C         20.66467        33.14669         1.59394
C         19.40541        33.91076         1.45093
C         20.66381        36.07933         1.64994
C         19.41391        35.35268         1.65033
C         20.73720        37.47310         1.61658
C         19.50158        38.27516         1.72056
C         20.70621        40.34152         0.99831
C         19.50181        39.66761         1.26214
C         20.75314        41.64939         0.44970
C         19.47342        42.34627         0.10916
C         20.46189        44.53875        -0.72950
C         19.39388        43.82440        -0.16329
C         20.62934        45.92583        -0.63050
C         19.43206        46.66566        -0.50888
C         20.66698        48.75570        -0.76264
C         19.44711        48.11457        -0.61848
C         20.71951        50.20839        -0.61330
C         19.42351        50.99248        -0.54975
C         20.67422        53.11113        -0.92871
C         19.44804        52.42009        -0.90595
C         20.69562        54.49079        -1.16661
C         19.48371        55.19939        -1.46373
C         20.71012        57.35899        -1.82495
C         19.51661        56.58697        -1.80329
C         20.78313        58.69300        -2.19758
C         23.29178         3.33471        -2.35760
C         22.07462         3.99702        -2.24107
C         23.25630         6.14637        -2.26513
C         22.03020         5.41595        -2.17986
C         23.22090         7.56346        -2.24891
C         22.01014         8.25707        -2.04211
C         23.19092        10.38301        -1.70188
C         22.00396         9.68666        -1.80730
C         23.18239        11.80302        -1.16594
C         21.91649        12.52900        -1.65620
C         23.18006        14.69767        -1.06371
C         21.88609        13.96941        -1.18478
C         23.22602        16.16767        -0.79169
C         21.92331        16.89272        -0.83348
C         23.17590        19.01471        -0.38117
C         21.94547        18.31000        -0.39539
C         23.15446        20.39148        -0.06809
C         21.94597        21.03829         0.28460
C         23.24907        23.19819         0.92517
C         21.91326        22.50332         0.58035
C         23.17940        24.55192         1.57010
C         21.94239        25.20841         1.54379
C         23.14967        27.47346         1.78632
C         21.85292        26.67659         1.75179
C         23.15998        28.84458         1.23121
C         21.98186        29.26992         0.67794
C         23.24231        31.86787         1.08840
C         21.96908        31.35728         0.64643
C         23.26126        33.21013         1.44252
C         21.97553        33.88938         1.69765
C         23.25382        36.07900         1.45671
C         21.92581        35.34719         1.44421
C         23.22981        37.53457         1.64877
C         21.99425        38.18111         1.58751
C         23.26283        40.36368         1.49867
C         21.94614        39.65961         1.51283
C         23.33130        41.58195         0.66025
C         22.09948        42.19288         0.11696
C         23.28805        44.45688         0.05109
C         22.34911        43.56077        -0.39184
C         23.25866        45.88506        -0.26275
C         21.99324        46.53353        -0.80883
C         23.18483        48.81273        -0.59596
C         21.95927        48.04203        -0.92083
C         23.21294        50.17638        -0.78148
C         21.94215        50.91636        -1.17779
C         23.15407        53.04616        -1.33421
C         21.97687        52.38396        -0.64009
C         23.24215        54.51147        -1.23945
C         21.97312        55.22526        -1.03351
C         23.25711        57.34083        -1.65245
C         21.96579        56.71837        -1.36234
C         23.25160        58.55592        -2.55692
C         22.08612        59.47179        -2.10535
C         23.16624        61.21858        -3.51149
C         22.04897        60.74467        -2.90571
C         24.49981         4.04286        -2.40204
C         25.74714         6.17674        -2.33741
C         24.51395         5.45266        -2.35625
C         25.78630         7.57487        -2.29706
C         24.49104         8.29072        -2.40682
C         25.75021        10.37326        -1.61872
C         24.46866         9.77012        -2.09054
C         25.75223        11.84684        -1.35913
C         24.45168        12.55216        -1.55354
C         25.72712        14.80057        -1.50196
C         24.43327        14.03497        -1.53874
C         25.72849        16.27987        -1.28134
C         24.45920        16.97844        -0.96976
C         25.71333        19.04915        -0.56379
C         24.44324        18.32118        -0.68552
C         25.68148        20.38172        -0.24559
C         24.41258        21.21815        -0.25587
C         25.66040        22.59454         1.41120
C         24.44217        22.32174         0.79728
C         25.65700        24.72470         1.99174
C         24.39171        25.33141         1.81667
C         25.62592        27.44017         1.46991
C         24.41261        26.73856         1.68242
C         25.61906        28.88623         1.31020
C         24.40474        29.60818         1.16297
C         25.67297        31.72816         1.32074
C         24.43625        31.04387         1.11562
C         25.72794        33.16429         1.52907
C         24.49718        33.92289         1.61331
C         25.70781        36.05992         1.99499
C         24.47904        35.31476         1.74350
C         25.74293        37.52674         1.78860
C         24.51120        38.22666         1.72120
C         25.76450        40.32476         1.50457
C         24.54198        39.63196         1.59100
C         25.81456        41.77000         1.16286
C         24.56486        42.43273         0.71725
C         25.68278        44.66073         0.86559
C         24.37093        43.91525         0.97369
C         25.62365        46.00855         0.55382
C         24.37840        46.64267         0.08996
C         25.63407        48.97244         0.11515
C         24.34415        48.13160        -0.00517
C         25.66702        50.29085        -0.53827
C         24.45836        50.89578        -0.84204
C         25.71571        52.98731        -1.65238
C         24.42637        52.25617        -1.42231
C         25.72599        54.51645        -1.71799
C         24.44315        55.19305        -1.32432
C         26.24230        57.47643        -2.33645
C         24.38203        56.63205        -1.30982
C         25.82810        58.57749        -3.09939
C         24.56987        59.26058        -2.92074
C         24.42165        60.51991        -3.48050
C         26.99532         8.31289        -2.20130
C         28.21082        10.46180        -1.79525
C         27.03667         9.70475        -1.91935
C         28.21693        11.88314        -1.54521
C         27.00801        12.58829        -1.44847
C         28.25086        14.79810        -1.58909
C         26.99375        14.05539        -1.09398
C         28.23227        16.22418        -1.05220
C         27.01858        16.93907        -0.95093
C         28.22870        18.96237        -0.35784
C         26.99632        18.32273        -0.62886
C         28.28572        20.40856        -0.13542
C         26.93157        21.13922        -0.06860
C         28.12967        23.08875         0.93439
C         26.90530        22.24630         0.86293
C         28.09160        24.54877         1.28507
C         26.85975        25.32978         1.63382
C         28.08817        27.40344         1.04642
C         26.85037        26.72464         1.38342
C         28.08937        28.84646         1.02550
C         26.86136        29.57344         1.27188
C         28.15188        31.67768         1.54776
C         26.87634        30.98429         1.35231
C         28.20377        33.13625         1.44711
C         26.95995        33.83727         1.56780
C         28.22077        36.04109         1.49466
C         27.00352        35.27697         1.87138
C         28.26167        37.51281         1.72769
C         26.98194        38.22081         1.72904
C         28.23940        40.42214         1.58234
C         26.97912        39.63375         1.62119
C         28.17071        41.86468         2.12509
C         26.96752        42.61455         1.54253
C         28.15874        44.76499         1.34250
C         26.90782        43.96818         1.28645
C         28.15787        46.07909         0.69960
C         26.88532        46.79920         0.66395
C         28.20736        48.91541        -0.03079
C         26.93326        48.28059         0.41186
C         28.17326        50.27776        -0.54717
C         26.94164        50.94779        -0.81135
C         28.18827        52.96814        -1.48941
C         26.96467        52.27137        -1.31854
C         28.19779        54.34935        -1.88187
C         27.07792        55.17798        -1.90744
C         27.20363        56.47129        -2.53069
C         29.45279        12.61112        -1.36940
C         30.68465        14.70685        -0.95896
C         29.49911        14.00595        -1.23994
C         30.70387        16.11650        -0.74155
C         29.45411        16.85182        -0.72909
C         30.67985        18.86107         0.00949
C         29.45718        18.22776        -0.34299
C         30.66241        20.18907         0.64635
C         29.44664        21.02379         0.55551
C         30.66784        23.06432         1.34180
C         29.42330        22.33593         0.96506
C         30.68408        24.57369         1.28470
C         29.38468        25.30023         1.42742
C         30.46337        27.30912         0.35828
C         29.29087        26.70336         0.97283
C         30.39507        28.84770         0.15996
C         29.28280        29.52924         0.79408
C         30.65875        31.68183         0.90829
C         29.45547        30.91179         1.24151
C         30.67417        33.06789         1.14035
C         29.44489        33.77606         1.37448
C         30.76186        35.92502         1.60741
C         29.47175        35.25369         1.28691
C         30.75095        37.41355         1.86696
C         29.46821        38.17162         1.70887
C         30.82118        40.32459         2.09318
C         29.53059        39.65635         1.60920
C         30.80957        41.84572         1.85354
C         29.51150        42.59799         1.94298
C         30.70323        44.63505         0.95593
C         29.48105        44.05477         1.55903
C         30.58521        45.98119         0.36595
C         29.43291        46.87626         0.80586
C         30.66850        48.83592        -0.24237
C         29.39282        48.21535         0.08571
C         30.72160        50.33722        -0.40546
C         29.39646        50.96533        -0.77489
C         29.39881        52.27915        -1.23039
C         31.90407        16.80382        -0.48894
C         33.16126        18.88366         0.04860
C         31.92607        18.17956        -0.12488
C         33.22637        20.24109         0.41629
C         31.99171        20.88429         0.91421
C         33.18216        23.14730         0.78460
C         31.98981        22.36199         1.17653
C         33.12748        24.56185         0.60000
C         31.88052        25.27125         0.72632
C         32.94384        27.33613        -0.06675
C         31.78562        26.62790         0.36147
C         32.90947        28.79910        -0.35562
C         31.64545        29.60998        -0.13546
C         33.01018        31.65719         0.18543
C         31.78911        31.00902         0.32059
C         33.21764        33.01382         0.81912
C         31.92719        33.80785         1.00833
C         33.27738        35.87636         1.25771
C         31.98190        35.15815         1.24660
C         33.28449        37.37640         1.37212
C         32.05798        38.15783         1.72931
C         33.12498        40.30993         1.05022
C         32.02434        39.62839         1.48650
C         33.11435        41.76160         0.90253
C         31.96811        42.49896         1.17423
C         33.08266        44.55071         0.28901
C         31.87494        43.89596         0.79346
C         33.08506        45.90384        -0.04577
C         31.84624        46.65056        -0.17541
C         31.82754        48.11978        -0.29789
C         34.40021        21.01903         0.38090
C         35.59384        23.20443         0.47153
C         34.38976        22.44128         0.54620
C         35.59742        24.59334         0.36096
C         34.32006        25.27623         0.23206
C         35.29550        27.40655        -0.67682
C         34.19196        26.65810        -0.13774
C         35.32829        28.79652        -0.68708
C         34.16803        29.56448        -0.35908
C         35.44161        31.70952        -0.47384
C         34.18992        30.96418        -0.24700
C         35.59218        33.05566        -0.16193
C         34.29037        33.82758         0.04785
C         35.68274        35.98339         0.34607
C         34.47637        35.18953         0.69419
C         35.66923        37.38377         0.48001
C         34.37327        38.08441         0.62789
C         35.60645        40.29367         0.38235
C         34.31636        39.57315         0.52795
C         35.54830        41.69896         0.31427
C         34.32955        42.42376         0.45021
C         34.29404        43.80251         0.21690
C         36.88633        25.28527         0.54092
C         38.34615        27.32609         0.15292
C         37.25962        26.41577        -0.14025
C         38.47744        28.59323        -0.41090
C         36.48693        29.53511        -1.09113
C         38.43852        31.88681        -0.51619
C         36.48766        30.89596        -1.05393
C         38.18182        33.16108        -0.06053
C         36.88357        33.87396        -0.45860
C         38.09805        35.99791         0.32966
C         36.87666        35.28759         0.11256
C         38.08576        37.40706         0.40296
C         36.86990        38.13613         0.36331
C         36.80838        39.57144         0.31949
C         39.39480        29.58077         0.10803
C         40.40974        31.68250         0.86473
C         39.41486        30.98809         0.07168
C         40.36981        33.03524         1.06547
C         39.25799        33.84556         0.62226
C         39.27634        35.23353         0.65528
O         31.43010        22.62745         2.51031
O         26.47141        35.62495         3.18171
O         18.72168        24.86448         2.84681
O         28.71278        35.75315         0.12946
O         24.71919        48.83930         1.23529
O         29.01914        40.23653         0.35883
O         25.78928        15.68739        -2.65765
O         21.23786        16.66902        -2.12076
O         31.31278        20.14917         1.96636
O         14.14439        22.78162        -0.76811
O         16.32513        33.38246         2.78704
O         21.48430        43.88632        -1.42338
O         37.64746        31.47329        -1.59569
O         28.98460        31.12766         2.61387
O         33.94638        38.72243        -0.63002
O          7.79099        31.12368        -1.67205
O         28.85772        44.79525         2.66804
O         16.92040        47.17852        -1.90097
O         11.45671        30.24690         2.19589
O         22.03116        30.30035        -0.26340
O         24.34447        13.29708        -2.80861
O         20.21963        50.68767         0.67599
O         30.40529        42.51006         3.10609
O         16.08885        22.56509         2.45267
O         25.62576        53.68106        -2.93398
O         30.07266        27.93425        -0.91326
O         30.84166        45.99488        -1.06188
O         23.52354        52.41928        -2.58256
O         18.83384        31.59858        -0.53057
O         23.36525        15.21270         0.31966
O         19.11197        18.18653         1.55553
O         18.66058        20.84051        -0.77606
O         22.60181        23.31720        -0.41886
O         11.16089        28.18529        -0.97172
O         21.92156        56.23586         0.02754
O         33.07556        37.83034         2.74091
O         30.22998        25.12193         2.59738
O         18.57735        41.54713        -0.79412
O         10.54535        36.65899         2.07955
O         17.08852        43.45926         1.95346
O         18.73384        38.04120         2.96504
O         36.40277        26.75518        -1.21412
O         21.29669        33.40502         2.90313
O         10.63515        33.69476        -1.21063
O         22.59389        35.67411         0.18561
O         34.27952        35.24310         2.15460
O         25.67727        23.43698         2.52806
O         27.79169        21.23512        -1.23702
O         17.67933        29.20137        -0.70430
O         30.75125        36.46418         2.97735
O         26.93985        47.81244         1.80745
O         22.45513        40.38229         2.71085
O         22.39705        27.20781         3.01591
O         22.13340        47.19184        -2.10876
O         21.80094        50.95514        -2.56138
O         14.18229        43.31485         1.83306
O         28.04766        24.12354        -0.14104
O         32.09186        29.29806        -1.48509
O         24.50412         9.30696        -3.47505
O         13.11711        27.92654         2.37385
O         37.66752        28.89975        -1.52448
O         25.56651        57.32253        -1.11713
O         22.92634        41.25083        -0.70940
O         25.66486        10.86992        -0.23179
O         25.52056        42.04234        -0.29082
O         21.86125        12.55220        -3.10129
H         22.69873        12.95705        -3.43581
O         22.81664        58.01572        -3.84645
H         23.54472        57.47184        -4.21487
O         23.92723        44.01235         2.35626
H         23.96847        44.95287         2.63077
O         27.92231        41.72694         3.54140
H         28.13345        42.58443         3.97033
O         22.25556        52.40243         0.76366
H         21.50355        51.95292         1.22134
O         31.74160        50.71619        -1.33505
H         31.51661        50.33656        -2.20909
O         26.97655        14.11570         0.36412
H         27.65275        13.49276         0.70562
O         15.21338        28.76811        -0.97750
H         16.05490        28.77170        -1.49545
O         36.87858        34.07955        -1.90683
H         37.13138        33.21463        -2.31022
O         13.50678        16.07830        -0.70057
H         13.84782        16.36644        -1.57206
O         18.12230        40.80205         2.80460
H         18.22160        39.97482         3.33346
O         29.67439        47.21703         2.20261
H         28.80600        47.50039         2.57616
O         12.88375        33.25887         2.88106
H         13.67859        32.92880         3.35437
O         30.90709        40.06867         3.50810
H         30.64153        40.89794         3.97333
O         18.71257        17.10221        -1.85273
H         19.43706        17.27161        -2.49970
O         19.81941        12.16906         0.85610
H         20.78669        12.29110         0.98821
O         33.76102        34.07832        -1.28196
H         34.51334        34.32281        -1.86564
O         13.61399        41.66978        -1.36620
H         12.90155        41.17918        -1.82791
O         22.27867        59.84277        -0.71440
H         22.30190        59.01996        -0.17929
O         33.72406        32.68787         2.13604
H         33.89695        33.54412         2.60391
O         24.37378        21.78002        -1.59275
H         23.66003        22.46422        -1.60213
O          8.14015        33.57592        -2.02245
H          8.96370        33.29666        -2.47987
O         28.26250        14.85266        -3.03128
H         27.43591        15.31061        -3.32205
O         18.81354        15.69768         1.50330
H         18.25457        15.02116         1.93893
O         23.10324        11.76712         0.27850
H         23.93585        11.34470         0.60071
H          4.87943        31.22046        -0.12232
H          4.92638        33.62548         0.28190
H          7.34541        26.88758         0.07594
H          6.13596        29.02130         0.15407
H          6.13398        35.70118         0.64395
H          7.31383        37.94410         0.39564
H          9.79449        22.53098         0.20485
H          8.57382        24.66714         0.12201
H          8.60571        40.13764         0.12058
H          9.81499        42.22472         0.13705
H         12.32618        18.20129         0.20279
H         11.07758        20.35439         0.20798
H         11.01174        44.36308        -0.09928
H         12.26499        46.47667        -0.57390
H         14.86528        13.92357        -0.19836
H         14.00551        16.14834         1.28709
H         13.48767        48.62556        -0.65881
H         14.74553        50.81776        -0.79061
H         17.33115         9.72095        -1.21534
H         16.06802        11.84198        -0.72172
H         16.03940        52.90217        -1.23704
H         17.32476        55.00503        -1.68285
H         19.87213         5.55535        -1.92222
H         18.62367         7.62691        -1.56780
H         18.57175        57.07502        -2.08771
H         19.86747        59.22137        -2.50739
H         23.31015         2.23663        -2.40108
H         21.13687         3.42577        -2.18724
H         23.13239        62.18208        -4.04119
H         21.11490        61.32589        -2.92301
H         25.45142         3.49663        -2.47204
H         26.68960         5.60861        -2.31464
H         26.49123        58.94759        -3.89857
H         25.30221        61.02172        -3.90908
H         27.94719         7.76545        -2.28130
H         29.18029         9.96252        -1.94424
H         29.17631        54.79674        -2.11475
H         28.04403        56.62512        -3.22540
H         30.38703        12.03538        -1.27871
H         31.62631        14.14645        -0.84941
H         31.02822        50.77522         0.58753
H         30.35964        52.79577        -1.36830
H         32.85552        16.25385        -0.54031
H         34.09445        18.35939        -0.20707
H         34.04151        46.41680        -0.22633
H         32.77551        48.64380        -0.49309
H         35.35115        20.53557         0.11130
H         36.55382        22.66813         0.49990
H         36.47281        42.26489         0.12217
H         35.20996        44.31587        -0.11195
H         37.57105        24.85148         1.28592
H         39.00213        27.06132         0.99586
H         39.03892        37.94692         0.50485
H         37.75274        40.13022         0.23105
H         40.14528        29.14908         0.79405
H         41.23872        31.09549         1.28755
H         41.18271        33.52773         1.61873
H         40.17129        35.76250         1.01509
