         490
 CSIRO Nanostructure Databank - Neutral Graphene Oxide Data Set
C         37.59756        50.26410         1.63171
C         36.41486        50.96513         1.64731
C         37.57385        53.09827         1.65024
C         36.40830        52.39739         1.62862
C         40.15650        48.81889         1.57190
C         40.07268        50.21682         1.41345
C         38.86256        50.92328         1.56990
C         40.17011        53.16088         1.48089
C         38.86996        52.40114         1.70180
C         40.16434        54.61251         1.18581
C         42.56478        48.77375         1.09670
C         41.34801        48.12201         1.38110
C         42.57884        50.17462         0.91002
C         41.26576        50.91668         0.79425
C         42.52830        53.05580         0.72411
C         41.38001        52.39858         1.07003
C         42.50212        54.51383         0.41504
C         41.24506        55.23797         0.69021
C         45.12625        46.08704         1.81516
C         43.93032        46.68211         1.62451
C         45.08617        48.78688         0.97227
C         43.82300        47.96430         0.84199
C         45.03411        50.16433         0.77577
C         43.78919        50.87066         0.68301
C         44.95082        53.01730         0.27988
C         43.78256        52.32806         0.51688
C         45.08033        54.50326         0.48936
C         43.79399        55.24789         0.18773
C         45.10208        57.32159         0.07502
C         43.90796        56.72124         0.27906
C         47.62624        44.55175         1.42167
C         47.58800        45.95237         1.37963
C         46.37865        46.71691         1.42991
C         47.55751        48.83329         0.84818
C         46.34604        48.10666         1.12125
C         47.55628        50.18680         0.52998
C         46.30960        50.97314         0.83384
C         47.45023        52.95740        -0.33700
C         46.19639        52.24980         0.03918
C         47.45669        54.43165        -0.43836
C         46.29768        55.16148        -0.15460
C         47.49902        57.24848        -0.66414
C         46.31199        56.58013        -0.25518
C         47.54452        58.67824        -0.76840
C         50.06542        44.46589         1.05182
C         48.83705        43.84603         1.33492
C         50.08855        45.88532         0.84597
C         48.88488        46.64592         1.25146
C         50.03071        48.75919         0.36016
C         48.85058        48.14005         0.95475
C         49.98742        50.14488        -0.02208
C         48.75488        50.87740         0.13038
C         49.92166        52.93621        -0.58759
C         48.73955        52.24858        -0.20699
C         49.87535        54.31715        -0.91026
C         48.68344        55.07744        -0.79082
C         49.91250        57.19896        -1.24493
C         48.70280        56.51427        -0.93149
C         49.93989        58.64063        -1.27009
C         48.70841        59.33990        -1.03294
C         52.40324        41.65991         0.09832
C         51.24023        42.37975         0.35032
C         52.58340        44.19452         1.21353
C         51.29095        43.66428         0.92440
C         52.35109        45.96057        -0.39107
C         51.19902        46.59365         0.34529
C         52.49123        48.78327         0.10048
C         51.20061        48.00948         0.24090
C         52.34067        49.94164        -0.89453
C         51.13622        50.77794        -0.52367
C         52.38358        52.83843        -0.97609
C         51.16291        52.18637        -0.71186
C         52.37694        54.34176        -0.84175
C         51.12645        54.95516        -1.47128
C         52.35681        57.13057        -1.54768
C         51.14769        56.46990        -1.39431
C         52.35926        58.57290        -1.98419
C         51.13810        59.33880        -1.52818
C         52.35375        61.45085        -1.80306
C         51.19408        60.76736        -1.57846
C         54.92233        40.12201         0.08368
C         54.90732        41.51857         0.04838
C         53.66947        42.27493         0.21301
C         55.02955        44.43009         0.57180
C         53.74669        43.61897         0.65242
C         54.93492        45.81688        -0.08007
C         53.70347        46.58012        -0.15107
C         55.00061        48.74017        -0.24404
C         53.72161        47.95521        -0.15402
C         54.88464        49.92442        -1.23346
C         53.62316        50.72869        -1.02730
C         54.85351        52.82017        -1.61463
C         53.60873        52.10204        -1.12189
C         54.86300        54.30416        -1.32402
C         53.65268        55.01799        -1.25990
C         54.82801        57.16810        -1.38266
C         53.62925        56.44401        -1.42019
C         54.84099        58.60305        -1.51573
C         53.66074        59.29911        -1.74811
C         54.93865        61.52028        -1.49065
C         53.64684        60.76152        -1.89599
C         54.91034        62.93961        -1.07244
C         57.36141        40.05307         0.07973
C         56.12630        39.40237         0.14665
C         57.37945        41.47425        -0.14484
C         56.14794        42.22927        -0.04518
C         57.36280        44.33197        -0.39626
C         56.18677        43.63879         0.00347
C         57.36725        45.71715        -0.53880
C         56.14739        46.47038        -0.38100
C         57.38384        48.57350        -0.88151
C         56.19082        47.88932        -0.61161
C         57.37716        50.02441        -0.98392
C         56.16283        50.73309        -1.11369
C         57.36052        52.85427        -1.18572
C         56.14997        52.12948        -1.24315
C         57.34135        54.30898        -1.24121
C         56.09021        54.99535        -1.27890
C         57.34652        57.18471        -1.14300
C         56.05703        56.45145        -0.88928
C         57.33800        58.58595        -1.10574
C         56.07826        59.32062        -1.23359
C         57.26070        61.34090        -0.47596
C         56.07734        60.68927        -1.08099
C         57.17685        62.77818        -0.09378
C         55.94115        63.52548        -0.43654
C         59.88433        37.48132         1.17499
C         58.68311        38.04976         0.78815
C         59.84825        40.07554         0.10787
C         58.62778        39.37215         0.28961
C         59.83375        41.45198        -0.37370
C         58.58499        42.13015        -0.41343
C         59.86112        44.24784        -0.80662
C         58.53954        43.53862        -0.92614
C         59.86247        45.72662        -0.58556
C         58.59043        46.38086        -1.12990
C         59.84769        48.56286        -1.03371
C         58.63295        47.88094        -0.97279
C         59.85820        50.01384        -1.06340
C         58.61321        50.72393        -1.03494
C         59.84188        52.85122        -1.03677
C         58.60109        52.14946        -1.08011
C         59.81090        54.31579        -0.94373
C         58.54587        55.03186        -1.16477
C         59.79926        57.19796        -1.31405
C         58.57277        56.47287        -1.19437
C         59.79220        58.59536        -1.25081
C         58.57213        59.29271        -1.07488
C         59.74337        61.41275        -0.65953
C         58.57542        60.70831        -0.75773
C         59.76932        62.83274        -0.20368
C         58.46392        63.53561         0.08780
C         59.62726        64.97164         1.71021
C         58.47705        64.60526         1.09774
C         62.42067        36.42949         2.27008
C         62.36767        37.62019         1.52233
C         61.10025        38.19916         1.06782
C         62.32758        40.31153         0.37656
C         61.07251        39.47635         0.47552
C         62.27245        41.27090        -0.81972
C         61.02102        42.10830        -0.73934
C         62.27806        44.22327        -1.31536
C         61.04817        43.53137        -0.97146
C         62.26009        45.63437        -1.38559
C         61.11433        46.40912        -1.06799
C         62.31812        48.56933        -1.23037
C         61.11200        47.83703        -1.11516
C         62.32845        50.01640        -1.28295
C         61.06454        50.73142        -1.19625
C         62.30921        52.90387        -1.33019
C         61.06442        52.16479        -1.15170
C         62.33324        54.27186        -1.35111
C         61.10950        55.05930        -1.12218
C         62.36179        57.16880        -1.22472
C         61.08301        56.47440        -1.67131
C         62.28097        58.63012        -0.82155
C         61.08509        59.34364        -1.53955
C         62.29641        61.58356        -0.81398
C         61.02282        60.83550        -1.13984
C         62.26347        62.68372         0.19626
C         60.98001        63.28503         0.52084
C         62.04711        64.65537         2.26898
C         60.89131        64.30791         1.46005
C         61.96161        65.45663         3.37361
C         64.85837        36.37402         2.15111
C         63.63409        35.83496         2.60238
C         64.82141        37.58669         1.43132
C         63.59626        38.23889         1.15335
C         64.77310        40.08222        -0.00371
C         63.59391        39.48977         0.43141
C         64.72661        41.30864        -0.80653
C         63.56979        42.04003        -1.02352
C         64.75110        44.18379        -1.81980
C         63.45644        43.37049        -1.81017
C         64.74607        45.66213        -1.86127
C         63.46886        46.40617        -1.77231
C         64.75582        48.53554        -1.57367
C         63.55573        47.86710        -1.48326
C         64.81297        49.98050        -1.14518
C         63.52402        50.70238        -1.43050
C         64.84430        52.86454        -1.54677
C         63.53389        52.15621        -1.82107
C         64.86532        54.29512        -1.50021
C         63.56908        55.04572        -1.77012
C         64.81196        57.09190        -0.67840
C         63.52791        56.47782        -1.22258
C         64.83459        58.59353        -0.83208
C         63.60236        59.33704        -1.08653
C         64.85617        61.56357        -0.60353
C         63.59991        60.84780        -1.00735
C         64.76505        62.73849         0.32929
C         63.41846        63.14471         0.78147
C         64.57060        64.96355         2.19229
C         63.38194        63.95923         2.04282
C         64.37967        65.55360         3.59057
C         63.14789        65.75987         4.13125
C         67.42473        33.83931         3.31439
C         66.20625        34.41880         2.99453
C         67.36086        36.38428         2.18868
C         66.14503        35.71315         2.43650
C         67.30452        37.75884         1.64555
C         66.09514        38.09365         0.80538
C         67.25380        40.20977         0.08154
C         66.05909        39.52642         0.33831
C         67.22162        41.33747        -0.83530
C         66.00466        41.63706        -1.39342
C         67.24889        44.26901        -1.99977
C         65.95460        43.64325        -2.17661
C         67.28973        45.63609        -1.78549
C         66.01968        46.39543        -1.48276
C         67.30180        48.53418        -1.65414
C         66.01888        47.83141        -2.03942
C         67.29895        49.96073        -1.54492
C         66.06736        50.71293        -1.55472
C         67.33644        52.84885        -1.78687
C         66.05195        52.11779        -1.61300
C         67.37803        54.37700        -1.73102
C         66.04729        55.00595        -1.39678
C         67.33131        57.11025        -0.84127
C         66.04680        56.51109        -1.40342
C         67.35146        58.48456        -0.61160
C         66.11956        59.27076        -0.90586
C         67.30231        61.38338        -0.00982
C         66.14044        60.80509        -0.69163
C         67.23007        62.53020         0.75352
C         65.98092        63.20858         1.06479
C         67.18746        65.04987         2.18899
C         65.93862        64.32207         1.90448
C         67.24141        66.38281         2.78523
C         66.33684        66.81621         3.77987
C         67.40368        68.97029         3.96710
C         66.39523        68.07879         4.35887
C         69.98558        32.66382         4.12829
C         69.92380        33.89674         3.43880
C         68.64834        34.50922         3.09164
C         69.85787        36.48001         2.15647
C         68.61560        35.80607         2.50688
C         69.85200        37.75026         1.51655
C         68.58131        38.47063         1.32988
C         69.72883        40.25507         0.05910
C         68.54135        39.65790         0.44912
C         69.69488        41.68528        -0.44244
C         68.46966        42.01966        -1.28393
C         69.75487        44.22479        -1.74369
C         68.48634        43.45350        -1.87061
C         69.73499        45.64900        -1.85264
C         68.52857        46.35868        -1.77102
C         69.75502        48.49690        -1.46167
C         68.50319        47.81358        -1.64987
C         69.74842        49.90540        -1.23752
C         68.53084        50.62454        -1.35189
C         69.79480        52.78892        -1.00798
C         68.60099        52.08458        -1.51206
C         69.73794        54.19754        -0.74244
C         68.55219        54.95257        -0.95189
C         69.74077        57.01424        -0.26926
C         68.53187        56.34316        -0.67365
C         69.76522        58.44342        -0.13069
C         68.56429        59.16636        -0.31075
C         69.85400        61.30102         0.18897
C         68.57760        60.64161        -0.23752
C         69.77313        62.62241         0.82463
C         68.47131        63.04369         1.45073
C         69.60029        65.30839         1.67894
C         68.40461        64.51567         1.75577
C         69.51252        66.71356         1.86640
C         68.33998        67.25218         2.51538
C         69.64174        69.41014         2.86908
C         68.38964        68.56538         3.07092
C         69.43634        70.90749         2.96409
C         72.39978        32.72092         4.10156
C         71.20232        32.08239         4.45537
C         72.36482        33.93246         3.42614
C         71.13762        34.54523         3.08107
C         72.28043        36.42873         1.89602
C         71.09877        35.82112         2.37890
C         72.25149        37.62758         1.20561
C         71.03608        38.32143         0.99951
C         72.15125        40.19916        -0.21322
C         70.99557        39.60741         0.29718
C         72.13744        41.43814        -0.89371
C         70.98018        42.18423        -1.05709
C         72.21432        44.29197        -1.59302
C         70.97155        43.54363        -1.52816
C         72.24933        45.61850        -1.83106
C         71.01006        46.40926        -2.14738
C         72.17874        48.51518        -1.34854
C         70.99582        47.81437        -1.57494
C         72.16971        49.88089        -1.02695
C         70.97567        50.60262        -0.99780
C         72.08000        52.69848        -0.17855
C         70.94575        52.04066        -0.73196
C         72.06251        54.05254         0.05178
C         70.91442        54.84231        -0.23591
C         72.14309        56.94881         0.25740
C         70.92842        56.26197        -0.06631
C         72.18646        58.30987         0.36400
C         71.01353        59.11135         0.19527
C         72.24877        61.24973         0.70914
C         71.07075        60.50566         0.39106
C         72.20393        62.61263         0.89351
C         70.94881        63.31083         1.03777
C         71.97180        65.58070         1.16274
C         70.86938        64.74080         1.34046
C         71.83809        66.97654         1.22431
C         70.61600        67.55222         1.55724
C         71.50332        69.94449         1.25703
C         70.32762        69.03974         1.54830
C         71.46551        71.23364         1.64564
C         70.34261        71.74402         2.42224
O         69.41848        61.30035        -1.24750
O         68.65120        42.23837        -2.69506
O         64.94163        62.92143        -1.13786
O         64.05193        46.08678        -3.10254
O         61.62341        61.77832        -2.09369
O         39.72970        52.84389         2.84781
O         43.03845        54.76034        -0.95763
O         60.55639        54.90965         0.21748
O         46.59220        52.23859        -1.36200
O         49.11381        47.63095         2.32142
O         59.19125        63.81181        -1.14974
O         65.96774        42.31654        -2.61528
O         66.36052        60.23121        -2.00274
O         52.17096        45.16776        -1.30247
O         54.56273        61.31656        -2.89206
O         67.79672        38.75786         2.57721
O         65.45283        65.90626         4.37729
O         57.02136        61.73934         0.94136
O         68.16107        52.39811        -2.91374
O         63.65820        60.18723        -2.30245
O         69.49509        42.49669         0.77409
H         70.20073        42.25452         1.41093
O         55.92258        56.43480         0.59654
H         56.71936        55.98232         0.94901
O         66.28131        37.28799        -0.41439
H         65.49661        37.42838        -0.98606
O         65.99090        46.53845        -0.02891
H         66.29127        45.69783         0.37557
O         51.15897        54.61824        -2.89075
H         50.29977        54.87691        -3.28478
O         64.40363        66.05639         1.25952
H         64.52956        65.70839         0.35126
O         52.26221        54.61476         0.59266
H         53.10138        54.34740         1.02345
O         61.11465        56.39942        -3.13076
H         61.12435        57.34089        -3.44501
O         64.91779        49.95167         0.34308
H         64.24631        49.31441         0.66952
O         52.05763        49.33232        -2.18533
H         52.02560        50.04342        -2.85879
O         62.06834        58.71750         0.61249
H         61.29459        58.15855         0.84201
O         62.15501        40.46904        -2.03025
H         62.16493        41.10360        -2.78491
O         40.93556        50.88299        -0.65443
H         41.68139        51.30454        -1.13475
O         61.28106        59.22843        -2.96318
H         61.98835        59.88026        -3.20412
O         46.45236        51.44607         2.22255
H         46.55304        50.65589         2.79580
O         70.56201        69.03664         3.93473
H         70.15967        69.30109         4.78789
O         52.22816        58.50877        -3.46494
H         51.43282        57.96914        -3.66242
O         62.36785        41.16314         1.56707
H         62.41711        40.57713         2.35160
O         69.34800        69.26863         0.49716
H         69.76695        69.05568        -0.36222
O         58.31947        43.41028        -2.38028
H         58.40652        44.32630        -2.75344
O         63.13924        42.96417        -3.17917
H         63.98211        42.66520        -3.58786
O         63.51622        55.11537        -3.22969
H         62.68404        55.60829        -3.46547
O         66.02481        47.80438        -3.48245
H         65.20901        47.32317        -3.77028
O         55.39511        44.76758         1.98579
H         55.72121        43.94212         2.40586
O         43.74156        47.55980        -0.57480
H         43.68480        48.38010        -1.10955
O         63.42702        52.19709        -3.29085
H         63.48397        53.15219        -3.55016
O         59.79931        45.92660         0.87358
H         60.59980        45.51672         1.26432
O         65.91312        56.94477        -2.77505
H         66.54561        56.40967        -3.31181
O         54.76709        52.69269        -3.08297
H         55.42394        53.30867        -3.47237
O         54.85233        49.36934        -2.57298
H         54.76015        50.12085        -3.19761
O         67.62215        54.84433        -3.10631
H         68.05738        54.08751        -3.57434
O         63.53397        62.96036         3.10354
H         63.20932        63.35576         3.94116
O         55.29890        49.33955         1.04947
H         55.44844        48.61355         1.68995
O         45.27822        54.65904         1.93571
H         45.92590        53.98194         2.23040
O         71.02125        46.61038        -3.60560
H         70.94635        45.72682        -4.02459
O         64.91811        56.71531         0.72174
H         64.13431        57.07420         1.19032
O         52.67484        49.42019         1.39897
H         52.58271        48.73434         2.09281
O         68.47869        62.35425         2.76391
H         69.16650        62.78322         3.31673
O         52.71866        45.26022         2.05234
H         53.68541        45.36913         2.24683
O         58.57178        46.13273        -2.57669
H         57.80945        46.62240        -2.95336
H         37.56167        49.16630         1.60149
H         35.45744        50.42663         1.65291
H         37.55490        54.19614         1.67779
H         35.44506        52.92627         1.60931
H         39.27514        48.25406         1.90663
H         39.25738        55.19033         1.41241
H         41.33227        47.03072         1.50331
H         41.20274        56.31291         0.46344
H         45.16819        45.11212         2.32282
H         43.01605        46.17251         1.95970
H         45.14942        58.41712         0.13380
H         43.01126        57.32867         0.46812
H         46.69594        43.97970         1.54491
H         46.63258        59.26865        -0.61450
H         48.81179        42.75547         1.47151
H         48.68721        60.43622        -1.07674
H         52.32490        40.63320        -0.28214
H         50.26572        41.93365         0.10747
H         52.32960        62.54325        -1.91361
H         50.26998        61.34966        -1.45793
H         53.97748        39.56410         0.13646
H         54.03973        63.54419        -1.36412
H         56.07829        38.31043         0.25649
H         55.90469        64.60024        -0.20353
H         59.88141        36.46162         1.58297
H         57.75777        37.47179         0.91640
H         59.59091        65.77434         2.45847
H         57.52092        65.06065         1.39504
H         61.49185        35.94995         2.60761
H         61.01130        65.88787         3.71379
H         63.62219        34.91562         3.20306
H         63.05944        66.24359         5.11245
H         67.42087        32.82898         3.74407
H         65.28509        33.85173         3.18488
H         67.44432        69.96331         4.43577
H         65.67793        68.35291         5.14267
H         69.06170        32.15012         4.42547
H         68.60769        71.31277         3.56388
H         73.36490        32.26562         4.36321
H         71.22685        31.12547         4.99473
H         73.31625        34.41781         3.17141
H         73.25139        35.93696         2.03925
H         73.19743        38.03744         0.82823
H         73.12212        39.69961        -0.09974
H         73.09249        41.80710        -1.29291
H         73.15817        43.75825        -1.41260
H         73.22374        46.12131        -1.90580
H         73.15060        48.01265        -1.44094
H         73.13093        50.38640        -0.86377
H         72.97796        52.12180         0.07929
H         72.95707        54.51954         0.48299
H         73.07243        56.38274         0.39820
H         73.14315        58.79589         0.59652
H         73.22189        60.74170         0.75844
H         73.14174        63.15562         1.07426
H         72.95014        65.15525         0.90138
H         72.71513        67.60445         1.01556
H         72.32263        69.58391         0.61653
H         72.26956        71.93036         1.36646
H         70.24948        72.83238         2.55205
