         324
 CSIRO Nanostructure Databank - Neutral Graphene Oxide Data Set
C          1.95726         2.68378         3.22554
C          1.76813         3.99531         2.71961
C          3.20424         2.13518         3.35253
C          2.83524         4.71539         2.13702
C          1.41610         6.67863         1.49251
C          1.19206         7.84808         0.79930
C          2.65550         5.98358         1.49810
C          2.25254         8.47742         0.01764
C          1.00597        10.75292        -0.22825
C          0.98636        12.09302        -0.38031
C          2.21404         9.94888        -0.47494
C          2.20680        12.82938        -0.75246
C          1.00871        15.13938        -0.44787
C          1.08998        16.42851        -0.01108
C          2.22266        14.37335        -0.73415
C          2.35263        17.06389         0.21709
C          2.40798        18.42875         0.61072
C          4.42638         2.94369         3.02700
C          4.13335         4.08981         2.08320
C          5.54804         2.05588         2.58415
C          5.11718         4.55296         1.19875
C          3.83212         6.63247         0.88819
C          3.63263         7.94876         0.20180
C          5.02901         5.82521         0.56306
C          4.67433         8.47086        -0.74311
C          3.51363        10.64360        -0.65039
C          3.53742        12.14758        -0.42650
C          4.68935         9.96243        -0.85663
C          4.70810        12.80325        -1.16930
C          3.52000        15.01890        -0.49181
C          3.56775        16.32844         0.00747
C          4.75774        14.30218        -0.85273
C          4.83216        16.94660         0.37210
C          3.60732        19.06054         0.84039
C          4.85214        18.34399         0.78770
C          6.44121         2.41479         1.59501
C          6.21219         3.64945         0.81093
C          7.61196         1.66585         1.32566
C          7.35745         4.22312        -0.01908
C          6.08905         6.35886        -0.20841
C          5.93670         7.68979        -0.87265
C          7.31184         5.65194        -0.37649
C          7.17444         8.44089        -1.27828
C          5.98137        10.65124        -0.94955
C          6.00761        12.04574        -0.90090
C          7.21802         9.90881        -1.06388
C          7.25478        12.73311        -0.70931
C          6.06965        14.93041        -0.41693
C          6.01593        16.22500         0.28878
C          7.26380        14.06856        -0.31325
C          7.23897        16.77345         0.88092
C          6.04814        19.00625         1.03097
C          7.29007        18.26864         1.22174
C          8.70802         2.18902         0.58232
C          8.64584         3.51287        -0.01146
C          9.92998         1.51274         0.62474
C          9.78171         4.16944        -0.48684
C          8.50281         6.25842        -0.87213
C          8.47387         7.67694        -1.33305
C          9.71708         5.54923        -0.87798
C          9.72981         8.45142        -1.30383
C          8.45953        10.56597        -1.03850
C          8.50765        11.99068        -0.80992
C          9.71334         9.83432        -1.18810
C          9.73443        12.67129        -0.77080
C          8.53959        14.68516         0.08568
C          8.54196        16.07798         0.60912
C          9.78455        14.08680        -0.45554
C          9.72154        16.93992         0.28820
C          8.60235        18.94376         1.24004
C          9.78233        18.30907         0.86901
C         11.08878         1.97269        -0.11201
C         11.02601         3.40992        -0.73358
C         12.41101         1.47985         0.21508
C         12.31447         4.10845        -0.97520
C         10.95422         6.18258        -1.39773
C         10.96128         7.69367        -1.62013
C         12.25028         5.46025        -1.28213
C         12.25883         8.48220        -1.81577
C         10.97582        10.56393        -1.14357
C         10.98731        11.97240        -0.94367
C         12.20683         9.88173        -1.24400
C         12.21437        12.68235        -0.90776
C         10.95397        14.80092        -0.46753
C         10.96679        16.26312        -0.21150
C         12.20691        14.18699        -1.03866
C         12.25539        16.93684         0.02841
C         11.04478        18.94329         0.89313
C         12.25221        18.27865         0.52799
C         13.59069         2.03590        -0.27444
C         13.56678         3.34442        -0.94752
C         14.79554         1.40009         0.20404
C         14.75952         4.02048        -1.28840
C         13.47197         6.22275        -1.62543
C         13.50218         7.70127        -1.42708
C         14.76512         5.46724        -1.57104
C         14.67256         8.35103        -1.17455
C         13.41181        10.56990        -1.02969
C         13.43984        11.98782        -0.90792
C         14.66655         9.81211        -0.89334
C         14.70358        12.72279        -0.90397
C         13.48188        14.85540        -0.57954
C         13.46882        16.23634        -0.17663
C         14.68592        14.16269        -0.69621
C         14.71064        16.90999         0.04316
C         13.49220        18.93420         0.72031
C         14.71149        18.27911         0.47529
C         16.05205         1.55560        -0.37583
C         16.03975         3.41026        -1.39944
C         17.33368         1.36461         0.16244
C         17.28511         4.08012        -1.26480
C         16.03843         6.18827        -1.36051
C         15.96499         7.62699        -1.05218
C         17.24447         5.52818        -1.36138
C         17.27959         8.40458        -1.09867
C         15.95951        10.59422        -0.91770
C         15.91862        12.06638        -1.05480
C         17.18143         9.86979        -1.37796
C         17.18649        12.77580        -1.10208
C         15.94024        14.85590        -0.54394
C         15.94383        16.23945        -0.19806
C         17.17487        14.20542        -0.79141
C         17.17991        16.94110        -0.07239
C         15.95438        18.93245         0.69747
C         17.16640        18.28977         0.43202
C         18.49296         2.08968        -0.26467
C         18.49051         3.41960        -0.86794
C         19.71755         1.53018         0.15636
C         19.72572         4.19684        -0.81417
C         18.52050         6.23425        -1.75413
C         18.49242         7.72169        -1.52231
C         19.76495         5.57115        -1.20078
C         19.67431         8.49288        -1.85727
C         18.43173        10.66939        -1.65374
C         18.37921        12.10640        -1.33312
C         19.73328         9.95480        -1.69677
C         19.69283        12.78438        -1.04447
C         18.37734        14.95474        -0.79861
C         18.40941        16.32609        -0.42717
C         19.60098        14.27807        -1.27889
C         19.67378        17.06802        -0.34750
C         18.41113        18.90353         0.73343
C         19.64734        18.35104         0.38821
C         20.94598         2.21331         0.06157
C         20.93811         3.58487        -0.37498
C         22.14693         1.59534         0.45940
C         22.15956         4.31736        -0.32351
C         20.96818         6.31502        -1.13141
C         21.03654         7.72587        -1.61983
C         22.14338         5.69955        -0.65345
C         22.20005         8.57063        -1.38189
C         20.93775        10.63499        -1.67684
C         20.90916        12.12706        -1.69060
C         22.21185         9.95005        -1.59864
C         22.20947        12.90446        -1.60996
C         20.89742        15.05318        -1.28710
C         20.84512        16.44988        -0.80231
C         22.16847        14.32009        -1.23206
C         22.13335        17.09301        -0.76181
C         20.78682        19.01377         0.97254
C         22.08126        18.92587         0.45990
C         23.37840         2.29341         0.44832
C         23.38511         3.67323         0.06290
C         24.58350         1.64767         0.82286
C         24.63326         4.38626         0.03580
C         23.38658         6.46593        -0.49527
C         23.41197         7.92060        -0.83956
C         24.64588         5.73605        -0.32199
C         24.68730         8.54472        -1.29645
C         23.48347        10.71150        -1.53792
C         23.48500        12.15679        -1.46980
C         24.69235        10.01243        -1.44937
C         24.64617        12.85605        -1.11026
C         23.47020        15.08166        -1.21388
C         23.33854        16.45401        -0.58343
C         24.64586        14.25591        -0.75390
C         24.55862        17.23374        -0.25721
C         23.34195        19.13762         1.02988
C         24.53070        18.52107         0.50988
C         25.82338         2.32616         0.80744
C         25.86420         3.70284         0.39373
C         27.02824         1.69355         1.20756
C         27.10220         4.36543         0.35344
C         25.89749         6.50726        -0.34282
C         25.96140         7.78210        -1.13512
C         27.16431         5.79590        -0.00203
C         27.23984         8.51931        -1.08795
C         25.99800        10.67361        -1.41780
C         25.96113        12.20033        -1.17797
C         27.24194         9.92620        -1.04632
C         27.10008        12.81207        -0.49148
C         25.77335        14.86368        -0.21792
C         25.84047        16.34608        -0.02861
C         26.97029        14.07503         0.03946
C         26.93413        16.93344         0.73425
C         25.74689        19.06961         0.91694
C         26.96264        18.32367         1.00014
C         28.25857         2.36900         1.17792
C         28.31234         3.71872         0.70669
C         29.47250         1.75053         1.64419
C         29.57351         4.41917         0.64705
C         28.46437         6.31941        -0.52450
C         28.48409         7.73349        -1.05923
C         29.68889         5.70626         0.04210
C         29.79426         8.45529        -1.04921
C         28.40654        10.62651        -0.70045
C         28.45461        12.13327        -0.59104
C         29.72099         9.94179        -0.71293
C         29.38995        12.54034         0.54040
C         28.05309        14.63388         0.88978
C         28.01381        16.10258         1.27023
C         29.35145        13.94417         1.00066
C         29.26617        16.73702         1.70444
C         28.12297        18.91281         1.56428
C         29.28502        18.15488         1.86212
C         30.65460         2.43547         1.64990
C         30.74433         3.77686         1.13716
C         31.97777         4.46187         1.07370
C         30.92879         6.35619        -0.05007
C         31.08437         7.63503        -0.87837
C         32.06668         5.71887         0.49123
C         32.23196         8.50739        -0.43204
C         30.89244        10.53744        -0.06511
C         30.68057        11.75681         0.73061
C         32.11762         9.82700        -0.07038
C         31.79620        12.49058         1.34159
C         30.43204        14.53004         1.63727
C         30.41046        15.95679         1.99014
C         31.65843        13.76477         1.78251
C         31.54950        16.61406         2.50860
C         30.45592        18.77374         2.37412
C         31.55894        17.99925         2.70668
O         20.08990        14.80081        -2.53066
O         26.52946         6.68292         0.98838
O         27.52976        15.04485         2.20127
O          2.14513        13.57147        -1.98267
O         25.27114         7.77565        -2.42680
O         29.48616        11.57985         1.62341
O         16.71337         7.95427         0.18042
O         10.75815         6.76774        -2.74076
O         29.97422         9.42002        -2.10125
O          1.96496         8.81504        -1.36653
O         26.26362        11.62601        -2.49480
O          6.26839         3.43480        -0.63223
O         10.04038        16.97034        -1.14348
O         23.29449         7.57612         0.57290
O          8.73681        14.97572         1.54898
O          5.57977        15.02332        -1.82884
O         17.52336        10.22784        -2.74292
O         15.39664        10.14647         0.34964
O         22.13916        18.47608        -0.87044
O         16.05867         2.05878        -1.70182
O         21.45358        12.66165        -2.90303
O         20.47142         7.93577        -2.95215
O         28.48349         6.55819        -1.96209
O         25.59013        17.11945        -1.27577
O          4.12591         7.95507         1.57245
O          4.90705         7.68513        -1.93884
O         14.12784         5.80048        -2.87502
O          7.13059        17.20900         2.26302
O         10.84284         2.23804        -1.54015
O          7.69941         7.95985        -2.55558
O         12.39668         8.70177        -3.24620
H         12.08607         7.88050        -3.69466
O         31.42338         7.15969        -2.21269
H         31.20133         7.88419        -2.83916
O         18.55743         6.03228        -3.21569
H         19.30389         6.58491        -3.55657
O         12.15449        14.46294        -2.48454
H         11.31147        14.10052        -2.83094
O          4.87460         3.59403         4.29005
H          4.09766         4.06365         4.66221
O          4.48753        12.65577        -2.58316
H          4.96739        13.38542        -3.03349
O          3.78940        12.36845         0.98973
H          3.20775        11.77921         1.51410
O         23.77796        15.38056        -2.62634
H         24.52057        16.03186        -2.61422
O         19.93899        12.60996         0.39449
H         19.12591        12.86837         0.87923
O         29.05723        12.64586        -1.81813
H         28.48218        12.35578        -2.56215
H          1.07142         2.10813         3.53176
H          0.75075         4.40687         2.70163
H          3.33301         1.11997         3.75395
H          0.56501         6.23666         2.02953
H          0.17943         8.27275         0.76908
H          0.06896        10.21551        -0.02553
H          0.03455        12.63710        -0.30015
H          0.03195        14.68381        -0.65885
H          0.17233        17.00955         0.16153
H          1.46454        18.98407         0.71468
H          5.72645         1.13701         3.16333
H          3.62589        20.12153         1.12780
H          7.75050         0.70234         1.83844
H          6.05481        20.10237         1.12666
H         10.04428         0.64322         1.28899
H          8.63372        20.00040         1.54602
H         12.47717         0.62756         0.90735
H         11.11353        19.97136         1.27838
H         14.70406         0.77365         1.10366
H         13.50075        19.97056         1.08858
H         17.46231         0.66073         0.99828
H         15.95869        19.96347         1.08058
H         19.70994         0.52216         0.59667
H         18.39712        19.86582         1.26658
H         22.12672         0.54397         0.78270
H         20.60357        19.62092         1.87199
H         24.55101         0.58995         1.12282
H         23.44118        19.76619         1.92730
H         26.99201         0.65387         1.56566
H         25.73772        20.06377         1.38784
H         29.42732         0.71647         2.01580
H         28.12010        19.99116         1.77883
H         31.57138         1.95579         2.02284
H         32.88354         3.97494         1.46288
H         33.04764         6.20850         0.42923
H         33.23390         8.05600        -0.44947
H         33.02306        10.34297         0.28398
H         32.77919        12.00302         1.40656
H         32.53423        14.25096         2.23159
H         32.45380        16.04740         2.76388
H         30.47431        19.86357         2.51363
H         32.45993        18.47729         3.11561
