         244
 CSIRO Nanostructure Databank - Neutral Graphene Oxide Data Set
C          1.22069         1.98606        -0.07444
C          1.19005         3.38903        -0.07533
C          2.42701         1.30612        -0.04252
C          2.37515         4.14123        -0.01335
C          1.20703         6.29993        -0.45696
C          1.22086         7.67715        -0.63719
C          2.37547         5.59814        -0.09992
C          2.39283         8.41874        -0.41659
C          1.21784        10.65329        -0.11022
C          1.25038        12.00211        -0.01066
C          2.37534         9.90137        -0.72454
C          2.44196        12.77040        -0.33212
C          1.25937        14.96008        -0.13020
C          1.29745        16.33334        -0.05888
C          2.45297        14.19865        -0.33824
C          2.51557        17.04773        -0.21535
C          2.55135        18.46363        -0.03523
C          3.65111         2.02367         0.02947
C          3.62073         3.45614         0.08332
C          4.89102         1.34127         0.02471
C          4.84366         4.18651         0.22325
C          3.58035         6.32894         0.11513
C          3.56082         7.74977        -0.01553
C          4.82492         5.61777         0.33621
C          4.76632         8.53681         0.32172
C          3.66778        10.62498        -0.45714
C          3.66021        12.05563        -0.51223
C          4.86789         9.94386        -0.15934
C          4.88768        12.76490        -0.66024
C          3.68113        14.89651        -0.56177
C          3.71963        16.34145        -0.52826
C          4.88291        14.15715        -0.71872
C          4.92154        17.06206        -0.73235
C          3.73681        19.14267        -0.09503
C          4.96795        18.47000        -0.42856
C          6.10551         2.04453         0.08316
C          6.07757         3.47861         0.21974
C          7.35756         1.37017         0.00757
C          7.30553         4.18788         0.33471
C          6.04467         6.30862         0.56160
C          6.04177         7.79401         0.67782
C          7.26461         5.59518         0.56996
C          7.29614         8.53715         0.49866
C          6.10173        10.61251        -0.20316
C          6.18215        11.99456        -0.82243
C          7.32248         9.93373         0.14777
C          7.37052        12.82101        -0.33904
C          6.16889        14.82249        -1.14506
C          6.17278        16.35926        -1.10369
C          7.36003        14.17287        -0.45352
C          7.47915        17.12770        -1.01451
C          6.15753        19.19203        -0.38392
C          7.45669        18.66886        -0.92081
C          8.57164         2.06721         0.06220
C          8.55302         3.49046         0.25148
C          9.83251         1.39407        -0.07910
C          9.78664         4.21403         0.26927
C          8.54079         6.28058         0.78199
C          8.53931         7.85014         0.72803
C          9.78042         5.59325         0.46078
C          9.78272         8.53298         0.21272
C          8.52988        10.64606         0.23605
C          8.68117        12.08250        -0.17091
C          9.76010         9.95544         0.77434
C          9.69755        12.78584         0.76573
C          8.53514        14.99922        -0.05792
C          8.68411        16.39949        -0.52548
C          9.74362        14.29908         0.52982
C          9.82802        17.09185        -0.15776
C          8.68236        19.26410        -0.29413
C          9.84892        18.55778        -0.15150
C         11.04675         2.07528        -0.04214
C         11.06120         3.51135         0.14120
C         12.30825         1.39635        -0.14810
C         12.26921         4.18571         0.27783
C         11.04883         6.34708         0.14524
C         11.04888         7.80031         0.50235
C         12.27113         5.63425         0.70171
C         12.28421         8.53948         0.08085
C         11.05602        10.70444         0.55879
C         11.04658        12.10462         0.63749
C         12.27437         9.99614         0.47461
C         12.26361        12.82177         0.65480
C         11.04556        14.99217         0.43612
C         11.04442        16.39216         0.23300
C         12.26368        14.28349         0.60380
C         12.27154        17.10949         0.30462
C         11.09027        19.24312         0.09538
C         12.28216        18.55630         0.22903
C         13.51376         2.06655        -0.02334
C         13.52722         3.50080         0.21897
C         14.77834         1.38409        -0.17806
C         14.73155         4.20170         0.35105
C         13.55741         6.37493         0.40870
C         13.56203         7.78789         0.38330
C         14.77518         5.64880         0.39898
C         14.77335         8.48792         0.38929
C         13.48607        10.69155         0.55951
C         13.47943        12.09435         0.66763
C         14.80544         9.96459         0.72429
C         14.77393        12.78931         0.83720
C         13.47946        15.00215         0.62234
C         13.49008        16.41027         0.47951
C         14.76492        14.31929         0.84605
C         14.75332        17.12228         0.44320
C         13.54113        19.24486         0.36980
C         14.73100        18.56836         0.45146
C         15.97872         2.02849        -0.02273
C         16.02019         3.44202         0.52292
C         17.23013         1.33811        -0.23360
C         17.22330         4.23274         0.07707
C         16.01532         6.35335         0.33835
C         16.01269         7.78320         0.31900
C         17.26129         5.61525         0.18738
C         17.23410         8.51782         0.18287
C         15.93352        10.69010        -0.00880
C         16.02190        12.13311         0.44465
C         17.24531         9.94131         0.09040
C         17.20659        12.85047         0.42018
C         16.02135        15.01097         0.51579
C         15.96624        16.43033         0.34494
C         17.22239        14.28965         0.47270
C         17.17252        17.14943        -0.20368
C         16.01860        19.30401         0.75183
C         17.23878        18.61865         0.17443
C         18.41940         2.01190        -0.32114
C         18.41218         3.49296        -0.32996
C         19.68672         1.35374        -0.59448
C         19.72757         4.23066        -0.33072
C         18.53722         6.32752         0.19894
C         18.51400         7.79839         0.37936
C         19.73401         5.65557         0.04968
C         19.80364         8.56994         0.23171
C         18.43192        10.65513        -0.04723
C         18.48665        12.09669         0.28493
C         19.64608         9.88735        -0.52353
C         19.77527        12.85062         0.15795
C         18.52805        15.05182         0.62297
C         18.48635        16.45815         0.06883
C         19.76580        14.33172         0.13259
C         19.64001        17.13288        -0.17979
C         18.38917        19.27973        -0.03571
C         19.58210        18.57487        -0.65798
C         20.87099         2.00743        -0.57727
C         20.99594         3.43353        -0.09604
C         22.16128         4.20382        -0.67259
C         21.06952         6.31281         0.04868
C         21.10865         7.83415         0.08105
C         22.18590         5.54190        -0.57340
C         22.24720         8.59672        -0.48310
C         20.92958        10.69487        -0.69635
C         20.97405        12.17439        -0.44278
C         22.17679         9.90099        -0.80311
C         22.23967        12.93818        -0.32905
C         20.94898        15.01604        -0.01869
C         20.94185        16.48103        -0.03408
C         22.20087        14.27908        -0.17684
C         22.07623        17.25025         0.02578
C         20.86257        19.32328        -0.40161
C         22.00997        18.68860        -0.07859
O          5.16343         8.35770         1.72428
O         19.38536        12.32134         1.47828
O         19.23027         8.41842         1.53906
O         14.84730        13.54855         2.08754
O         19.04491         3.98587        -1.58901
O          8.78427        14.96746         1.41922
O          6.90022        16.79422        -2.33089
O         21.45837         7.04280         1.25549
O         20.74926        11.65435        -1.80994
O          8.63247         7.13142         1.97328
O          9.26307        12.07479        -1.51183
H          8.56533        11.71505        -2.11097
O         16.19350         3.27740         1.98568
H         15.46922         2.69483         2.29954
O          9.58951         9.83798         2.20899
H          9.46463        10.75224         2.56251
O         12.13071         5.64121         2.15277
H         12.93227         5.22860         2.53696
O         15.14819        10.03882         2.13437
H         14.42197         9.63675         2.65502
O          7.51985        19.20848        -2.29020
H          7.03850        18.56060        -2.85853
O         19.32452         9.43628        -1.88355
H         19.54752        10.18134        -2.48779
O         19.36338        18.57368        -2.09959
H         18.54752        18.03517        -2.25447
O          2.16776         9.97501        -2.18410
H          2.20506        10.92266        -2.43553
O         16.15942        19.38911         2.18480
H         16.23313        18.47854         2.53889
O         21.16681         3.38384         1.34995
H         22.05691         3.02453         1.54417
O         18.70844        15.16272         2.07749
H         18.84438        14.24443         2.40878
O          9.62422         8.62012        -1.24545
H         10.49080         8.96518        -1.59194
O          6.29010        14.43214        -2.55523
H          6.78529        15.16167        -3.00467
O         12.29108         8.62225        -1.41497
H         12.27637         7.68217        -1.72935
O          6.43872        11.76118        -2.24980
H          6.36151        12.65265        -2.68322
O         16.99537        17.11060        -1.67425
H         16.14324        17.55265        -1.87838
O          9.24669        12.57124         2.12628
H          8.77331        13.39412         2.40210
O         11.14300         6.24629        -1.33410
H         10.38204         6.77104        -1.68488
O         15.57264        10.70169        -1.41862
H         16.36886        10.92826        -1.94290
H          0.27567         1.42666        -0.11850
H          0.21437         3.89096        -0.12050
H          2.44925         0.20735        -0.07135
H          0.27185         5.75506        -0.64225
H          0.30598         8.19073        -0.96333
H          0.30255        10.10369         0.15489
H          0.36332        12.53102         0.36608
H          0.29832        14.44533        -0.00043
H          0.37534        16.89899         0.13912
H          1.61582        18.99233         0.19847
H          4.90099         0.24325        -0.04291
H          3.77030        20.22466         0.09725
H          7.36472         0.27764        -0.12348
H          6.10910        20.26652        -0.15064
H          9.83013         0.30163        -0.21468
H          8.70012        20.36051        -0.19796
H         12.30952         0.30958        -0.32332
H         11.08797        20.34311         0.09583
H         14.76422         0.32658        -0.48524
H         13.53305        20.34459         0.41174
H         17.20856         0.24372        -0.35662
H         15.95741        20.35658         0.37652
H         19.65839         0.28072        -0.84140
H         18.46088        20.35761         0.17984
H         21.79957         1.45847        -0.80050
H         23.00456         3.65884        -1.12508
H         23.06420         6.09858        -0.93263
H         23.21354         8.07883        -0.56725
H         23.06890        10.41322        -1.19129
H         23.19844        12.41764        -0.46018
H         23.14443        14.84205        -0.15785
H         23.06474        16.79099         0.16424
H         20.84820        20.41575        -0.53241
H         22.93668        19.26142         0.07261
