         429
 CSIRO Nanostructure Databank - Neutral Graphene Oxide Data Set
C          1.24045         2.05243         0.78733
C          1.22222         3.46649         1.01245
C          2.39647         1.33009         0.74357
C          2.37474         4.21173         1.15935
C          1.22220         6.42641         1.45706
C          1.24561         7.84730         1.48515
C          2.36610         5.66548         1.28186
C          2.40943         8.59234         1.36288
C          1.24974        10.80208         1.38527
C          1.24667        12.18613         1.25165
C          2.41660        10.03668         1.17576
C          2.40566        12.89607         0.88490
C          1.24087        15.12696         1.02372
C          1.27351        16.50620         1.01164
C          2.41277        14.34868         0.77753
C          2.47830        17.21179         0.75127
C          2.53464        18.63827         0.77125
C          3.68029         1.94211         1.09084
C          3.67160         3.50614         1.29418
C          4.93602         1.32991         0.68098
C          4.93408         4.19380         0.98764
C          3.66552         6.35298         1.32497
C          3.69986         7.88194         1.38609
C          4.85560         5.67816         0.67573
C          4.91151         8.59124         0.91601
C          3.61417        10.70812         0.77915
C          3.60467        12.14824         0.61922
C          4.82417         9.95560         0.60688
C          4.78169        12.84559         0.25734
C          3.61071        15.02918         0.47299
C          3.66309        16.46757         0.45964
C          4.83152        14.28365         0.25241
C          4.86906        17.16559         0.20453
C          3.71805        19.30294         0.55844
C          4.92715        18.58141         0.28637
C          6.13561         2.04627         0.67581
C          6.10360         3.50031         0.80144
C          7.37301         1.40255         0.38985
C          7.34171         4.25442         0.36774
C          6.13148         6.41630         1.04499
C          6.14861         7.88469         0.81095
C          7.39668         5.65355         0.93191
C          7.34987         8.51085         0.43021
C          6.00344        10.59193        -0.00203
C          5.93971        12.09096        -0.24969
C          7.32698         9.91493         0.04945
C          7.22978        12.81308        -0.47277
C          6.03502        14.96855         0.06672
C          6.08674        16.42756        -0.27975
C          7.29166        14.20782         0.06442
C          7.37813        17.12290         0.06623
C          6.16860        19.25174         0.13583
C          7.40075        18.53190         0.09990
C          8.61894         2.09415         0.40450
C          8.63950         3.51206         0.55494
C          9.85292         1.42673         0.23900
C          9.85936         4.20870         0.72636
C          8.66493         6.38502         0.73543
C          8.61640         7.80461         0.45080
C          9.84090         5.66937         0.76355
C          9.80360         8.44146         0.06574
C          8.48673        10.57624        -0.29573
C          8.51136        12.04095        -0.53006
C          9.74228         9.79259        -0.60137
C          9.77422        12.78300        -0.31494
C          8.60506        14.89660         0.20809
C          8.65088        16.40203         0.45066
C          9.83053        14.17459        -0.22199
C          9.86303        17.07579        -0.15289
C          8.66401        19.21461         0.10135
C          9.87521        18.52539        -0.12781
C         11.08404         2.11846         0.34935
C         11.09346         3.50874         0.70856
C         12.29512         1.44017         0.03853
C         12.38536         4.14194         1.22962
C         11.11055         6.42158         0.77247
C         11.06820         7.78696         0.18523
C         12.41574         5.70853         0.99310
C         12.25836         8.44002        -0.15354
C         11.01799        10.56015        -0.38833
C         11.00472        12.00828        -0.23929
C         12.23969         9.87387        -0.39876
C         12.30561        12.77481        -0.45218
C         11.02376        14.91766        -0.48640
C         10.98389        16.35244        -0.54031
C         12.25513        14.22057        -0.75595
C         12.17089        17.09172        -1.04228
C         11.10277        19.21069        -0.29912
C         12.28935        18.53852        -0.71078
C         13.55625         2.08006         0.15069
C         13.61790         3.37480         0.75746
C         14.76543         1.43325        -0.22183
C         14.90010         3.84237         1.05693
C         13.61657         6.44313         0.50706
C         13.53000         7.74401        -0.09319
C         14.91204         5.99292         0.81037
C         14.70882         8.36922        -0.51316
C         13.46056        10.56781        -0.64216
C         13.49827        11.98234        -0.80904
C         14.67838         9.78090        -0.88120
C         14.67893        12.68063        -1.01360
C         13.42338        14.87212        -1.09450
C         13.43700        16.31978        -1.35061
C         14.69692        14.12920        -1.39887
C         14.73797        17.02569        -1.28212
C         13.50371        19.18320        -0.86348
C         14.70288        18.52614        -1.51443
C         16.03424         2.05370        -0.08436
C         16.09148         3.35073         0.51207
C         17.25099         1.39527        -0.41916
C         17.37587         4.14697         0.70199
C         16.08014         6.37880         0.15011
C         16.01143         7.62666        -0.70465
C         17.30725         5.63490         0.24778
C         17.25690         8.46838        -0.47992
C         15.99779        10.52730        -0.90673
C         15.93594        11.99243        -0.69741
C         17.25571         9.83224        -0.55588
C         17.21076        12.76578        -0.59322
C         15.96396        14.87979        -1.01318
C         15.90694        16.34040        -1.08420
C         17.15936        14.21630        -0.88567
C         17.14327        17.08885        -0.73271
C         16.00117        19.22427        -1.19564
C         17.16962        18.56193        -0.89950
C         18.50449         2.05040        -0.30102
C         18.56118         3.44337         0.06374
C         19.70441         1.36948        -0.62236
C         19.76055         4.13296        -0.08222
C         18.50251         6.28997        -0.01481
C         18.55746         7.71453        -0.53443
C         19.76701         5.59015         0.00218
C         19.72342         8.52512        -0.00986
C         18.48255        10.62339        -0.43895
C         18.48702        12.00922        -0.59261
C         19.70557         9.89996        -0.11711
C         19.71539        12.78526        -0.58575
C         18.45873        14.92816        -1.16826
C         18.44167        16.35216        -0.66650
C         19.71079        14.19222        -0.75827
C         19.71346        17.09674        -0.74367
C         18.43667        19.22341        -0.78366
C         19.67034        18.53915        -0.72381
C         20.95654         2.02654        -0.60633
C         20.98009         3.43957        -0.38126
C         22.19317         1.34153        -0.79963
C         22.22318         4.13008        -0.39760
C         20.95070         6.29646        -0.01358
C         20.96526         7.76216         0.22221
C         22.23776         5.57626        -0.07592
C         22.28114         8.50356         0.11228
C         20.92983        10.71326         0.06859
C         20.94146        12.12260        -0.35330
C         22.26867         9.99233         0.09078
C         22.17032        12.82190        -0.43205
C         20.91478        14.92706        -0.70039
C         20.91186        16.38783        -0.76086
C         22.15449        14.23673        -0.59401
C         22.16369        17.10111        -0.73769
C         20.91051        19.23381        -0.69058
C         22.14183        18.55090        -0.68694
C         23.40577         2.02953        -0.81311
C         23.41466         3.44841        -0.65712
C         24.68948         1.34014        -0.93677
C         24.75525         4.16027        -0.63311
C         23.48787         6.35424        -0.36193
C         23.36701         7.82661        -0.70336
C         24.63233         5.63476        -0.99210
C         24.69589         8.55551        -0.70042
C         23.47258        10.70353        -0.36053
C         23.42911        12.10652        -0.45105
C         24.67987         9.98008        -0.60560
C         24.64491        12.83306        -0.65948
C         23.39546        14.96014        -0.69084
C         23.38325        16.40921        -0.73696
C         24.60320        14.26020        -0.74218
C         24.63346        17.13249        -0.67602
C         23.37170        19.25337        -0.60864
C         24.61132        18.58316        -0.58210
C         25.85028         1.99321        -1.18412
C         25.82139         3.47266        -1.51243
C         27.13287         1.24007        -1.41064
C         27.14724         4.20937        -1.33917
C         25.86552         6.41378        -1.31910
C         25.87662         7.88208        -1.04841
C         27.15660         5.66564        -1.37522
C         27.09812         8.59673        -1.17009
C         25.90042        10.70573        -0.75994
C         25.87760        12.12851        -0.73498
C         27.12151         9.98599        -0.97173
C         27.12007        12.87454        -0.66652
C         25.87012        14.99919        -1.08074
C         25.85170        16.45637        -0.69306
C         27.08976        14.24986        -0.62854
C         27.09162        17.16143        -0.52790
C         25.83356        19.28805        -0.50272
C         27.07992        18.61806        -0.44923
C         28.37195         2.05207        -1.10167
C         28.34127         3.49999        -1.19783
C         29.54237         1.39575        -0.82566
C         29.60148         4.20657        -1.10753
C         28.33061         6.38737        -1.43163
C         28.30131         7.88316        -1.76503
C         29.60912         5.64916        -1.47316
C         29.62827         8.63706        -1.50251
C         28.38909        10.69813        -0.88360
C         28.39149        12.14381        -0.64209
C         29.58097        10.02218        -0.98531
C         29.57330        12.83872        -0.69009
C         28.31791        14.98943        -0.19464
C         28.30247        16.47821        -0.40506
C         29.56136        14.30869        -0.71568
C         29.54338        17.17230        -0.18971
C         28.28883        19.31311        -0.27504
C         29.53870        18.63978        -0.09044
C         30.78931         2.09699        -0.65966
C         30.77787         3.52993        -0.83660
C         31.97488         1.42796        -0.38801
C         32.05267         4.25194        -0.63298
C         30.91092         6.39977        -1.48635
C         30.94441         7.90834        -1.44250
C         32.10960         5.71459        -0.89819
C         32.18210         8.57644        -0.92041
C         30.83735        10.72221        -0.50324
C         30.89269        12.16518        -1.01265
C         32.14904        10.00020        -0.69600
C         32.08129        12.89732        -0.39784
C         30.84919        15.05497        -0.52377
C         30.74227        16.47410        -0.12528
C         32.05314        14.25830        -0.20486
C         31.99841        17.19196         0.12759
C         30.70710        19.33061         0.18817
C         31.91935        18.60027         0.70279
C         33.26139         2.08325        -0.35096
C         33.32462         3.50758        -0.55735
C         34.40879         1.35320        -0.04764
C         34.53568         4.22665        -0.46684
C         33.43778         6.39121        -1.15548
C         33.35323         7.85280        -0.78622
C         34.59533         5.64081        -0.52757
C         34.63272         8.52963        -0.53739
C         33.30660        10.72850        -0.40657
C         33.28720        12.14142        -0.13656
C         34.61076        10.04108        -0.38034
C         34.48558        12.83482         0.22148
C         33.13883        14.91192         0.61208
C         33.23845        16.41108         0.40098
C         34.47380        14.22140         0.50011
C         34.36666        17.10865         1.14686
C         33.25510        19.27960         0.55302
C         34.42163        18.58329         0.78485
C         35.73897         1.95060        -0.11868
C         35.80712         3.49096        -0.32477
C         36.89754         1.32374         0.51035
C         36.99642         4.19804         0.16799
C         35.78308         6.34041        -0.14303
C         35.77551         7.74125        -0.04748
C         36.97874         5.61261         0.24880
C         36.88878         8.42960         0.60930
C         35.74390        10.72722         0.24603
C         35.72761        12.10759         0.39855
C         36.88673         9.95645         0.73529
C         36.93671        12.80224         0.75154
C         35.66900        14.93495         0.78569
C         35.67386        16.35776         0.95799
C         36.92218        14.22090         0.85371
C         36.88122        17.05835         1.03598
C         35.69021        19.22678         0.80895
C         36.88590        18.51617         1.01012
C         38.08219         2.01983         0.70115
C         38.14288         3.46123         0.54797
C         39.26472         1.33051         1.16118
C         39.33719         4.15880         0.91048
C         38.17164         6.31677         0.60701
C         38.17305         7.73333         0.73649
C         39.36775         5.58681         0.90236
C         39.35132         8.45469         1.05339
C         38.16442        10.65146         0.91400
C         38.15905        12.07340         0.91564
C         39.35465         9.90481         1.11175
C         39.38350        12.78229         1.14469
C         38.14049        14.92831         1.05219
C         38.13262        16.35384         1.09815
C         39.37961        14.21228         1.18121
C         39.35279        17.07096         1.23629
C         38.11674        19.19979         1.10669
C         39.33732        18.50957         1.24366
C         40.42646         1.99985         1.41633
C         40.49573         3.43080         1.30771
C         41.67675         4.13803         1.62226
C         40.56336         6.28332         1.24571
C         40.57004         7.73292         1.26587
C         41.71231         5.52296         1.58163
C         41.75422         8.46643         1.50110
C         40.58218        10.60585         1.32651
C         40.59322        12.05580         1.33800
C         41.76261         9.85254         1.51836
C         41.78639        12.79328         1.53554
C         40.59886        14.92198         1.36454
C         40.59653        16.37596         1.37075
C         41.78924        14.17690         1.53661
C         41.77818        17.12480         1.50364
C         40.56304        19.21808         1.37471
C         41.75663        18.52881         1.50271
O         16.42609        12.42034         0.62856
O         33.01226        16.92302        -0.92827
O         30.25290        14.83866        -1.88202
O         15.01048         5.01777         1.81856
O         12.53350        16.77375        -2.44304
O         11.86446        12.46392         0.89201
O         35.01343         9.42402        -1.67108
O         30.40509         5.86889        -2.73281
O         36.48403         9.09528         1.88103
O         31.92434         5.29078         0.47573
O         21.84126         8.01953         1.39313
O          5.65103        11.15074        -1.32409
O          7.99539        14.21689         1.38332
O          3.94226         7.04207         2.57016
O         21.68213        10.53665         1.31244
O          3.72724         2.58386         2.40802
O         30.50969         8.53737        -2.68713
O         23.23020         5.93654         0.99905
O         11.76842         6.40051         2.12201
O         36.06025         2.56929        -1.42177
O          7.82622        12.55681        -1.77135
O         24.87652         6.03298        -2.37922
O         17.69340        16.60783         0.55681
O         15.39732        10.09387        -2.16483
O          6.78904         5.88539         2.24110
O          8.76479        16.60926         1.89589
H          8.36656        15.81144         2.32079
O         17.64933         4.17397         2.13285
H         16.86049         4.57783         2.56297
O          6.02847        16.48647        -1.77697
H          5.14043        16.16326        -2.04286
O         32.72449        14.76871         2.02855
H         32.60081        13.81070         2.20593
O          9.65968         9.51442        -2.05842
H          9.20593        10.27531        -2.48254
O         12.33755         3.95593         2.66552
H         11.92174         4.76979         3.04162
O          7.19080         4.45962        -1.09274
H          7.28350         3.58199        -1.52288
O         22.87261         7.89565        -2.07354
H         23.53091         7.42618        -2.64213
O         25.45710         3.52215        -2.90932
H         25.35940         4.47153        -3.16540
O         28.41869        14.80094         1.26425
H         27.62052        15.19451         1.67610
O         31.68717        18.43851         2.14411
H         32.50474        18.02629         2.53185
O         31.03973        12.17073        -2.44453
H         30.94127        13.10654        -2.73918
O         14.49117        18.69328        -2.96212
H         13.66773        18.18859        -3.17587
O         25.94570        15.01342        -2.56026
H         25.97562        14.07996        -2.86115
O         18.53271        15.05589        -2.62961
H         18.58137        14.15634        -3.01632
O         30.68157        10.85465         0.95049
H         30.64549         9.95645         1.34087
O         27.14090        -0.00197        -0.70368
H         27.04436         0.18915         0.25165
O         14.75959        14.11405        -2.87725
H         14.52538        15.01333        -3.19521
O         34.05082        17.05843         2.57500
H         33.74425        16.13850         2.77422
O         28.07456         7.93168        -3.19773
H         28.96078         7.82667        -3.62092
O         18.81870         7.55300        -1.97916
H         17.97102         7.21665        -2.36694
O         16.06873         7.22419        -2.13135
H         15.82700         8.03462        -2.64047
O         25.26120         4.11124         0.72440
H         24.59964         4.57772         1.29211
O         33.64611         6.34334        -2.59740
H         34.32421         7.01161        -2.83371
O          4.67558         5.79699        -0.76112
H          5.47230         5.39367        -1.18809
H          0.28569         1.55862         0.55633
H          0.24931         3.97510         0.95977
H          2.38759         0.28155         0.41103
H          0.23987         5.93518         1.50310
H          0.27312         8.35834         1.51653
H          0.31952        10.30602         1.69274
H          0.30954        12.72262         1.45084
H          0.28791        14.62748         1.24379
H          0.35660        17.07653         1.22008
H          1.61333        19.20147         0.97995
H          4.92963         0.28179         0.34553
H          3.75319        20.40122         0.60182
H          7.37724         0.31189         0.24695
H          6.19235        20.35100         0.17289
H          9.86228         0.34775         0.02608
H          8.67204        20.31382         0.14953
H         12.24732         0.39875        -0.31160
H         11.13565        20.30005        -0.14671
H         14.71317         0.41760        -0.64048
H         13.56085        20.26327        -0.65643
H         17.21975         0.35625        -0.77903
H         16.02204        20.31588        -1.33964
H         19.65877         0.30002        -0.87717
H         18.45130        20.32337        -0.82860
H         22.18468         0.24859        -0.92480
H         20.90818        20.33382        -0.65918
H         24.70124         0.24519        -0.81854
H         23.35534        20.35270        -0.55898
H         27.17858         0.98209        -2.50730
H         25.81475        20.38767        -0.45964
H         29.53668         0.29757        -0.75574
H         28.26430        20.40978        -0.18313
H         31.95040         0.33751        -0.24293
H         30.69779        20.43115         0.21232
H         34.31554         0.30750         0.28157
H         33.29838        20.36330         0.36053
H         36.82835         0.26969         0.81918
H         35.73374        20.31905         0.67871
H         39.21786         0.23758         1.27413
H         38.12158        20.29979         1.08154
H         41.32410         1.45261         1.73927
H         42.57544         3.57715         1.91705
H         42.64922         6.03035         1.84742
H         42.70517         7.93997         1.65653
H         42.72012        10.36250         1.68742
H         42.74032        12.27094         1.68590
H         42.74544        14.69572         1.68636
H         42.74722        16.61886         1.60712
H         40.54984        20.31726         1.37596
H         42.70132        19.08082         1.60534
