         470
 CSIRO Nanostructure Databank - Neutral Graphene Oxide Data Set
C         36.87758        50.63193        -0.12154
C         36.23377        51.37454        -1.11389
C         38.04593        52.98395        -1.09401
C         36.82509        52.54154        -1.60628
C         39.97445        48.35675         1.01208
C         39.93158        49.75598         1.00448
C         38.11159        51.07356         0.36734
C         39.97321        52.77766         0.48704
C         38.71447        52.25669        -0.09243
C         40.02139        54.19823         0.70072
C         42.32699        48.43031         0.38394
C         41.15470        47.70149         0.68863
C         42.29004        49.85059         0.43437
C         41.08133        50.53234         0.70569
C         42.35648        52.62186         1.30518
C         41.07930        51.99554         0.76812
C         42.38616        54.12786         1.27352
C         41.16704        54.83679         1.11148
C         44.81528        45.67001        -0.40417
C         43.59496        46.35932        -0.26113
C         44.83161        48.41258         0.23083
C         43.55324        47.70458         0.08018
C         44.79852        49.90197         0.31481
C         43.51235        50.65904         0.05383
C         44.81864        52.70020         0.78549
C         43.61344        52.02246         0.71593
C         44.86473        54.09990         1.20160
C         43.61826        54.79391         1.42599
C         44.83382        56.89054         1.66431
C         43.65981        56.19845         1.70785
C         47.35910        44.18585        -0.47378
C         47.32195        45.58689        -0.32098
C         46.06443        46.30628        -0.27298
C         47.31315        48.41907        -0.08758
C         46.10040        47.71752        -0.06564
C         47.32157        49.89631        -0.16903
C         46.04199        50.66483        -0.01818
C         47.30297        52.73633         0.46017
C         46.08060        52.07850         0.39878
C         47.33420        54.15336         0.81390
C         46.07538        54.80582         1.17290
C         47.22650        56.98974         1.07543
C         46.07164        56.23655         1.35551
C         47.08997        58.33232         0.62612
C         49.75130        44.15164        -0.03979
C         48.54863        43.48608        -0.33488
C         49.77332        45.57167        -0.00013
C         48.55042        46.29266        -0.14029
C         49.78814        48.45296        -0.01673
C         48.55602        47.72735        -0.09011
C         49.79672        49.89226         0.03891
C         48.58078        50.62388         0.03518
C         49.80331        52.71945         0.27187
C         48.55736        52.02313         0.23284
C         49.81202        54.16540         0.60426
C         48.51885        54.85961         0.79563
C         49.64686        57.04792         0.31016
C         48.58689        56.33830         1.15472
C         49.33563        58.23650        -0.28987
C         48.08862        58.92137        -0.10519
C         52.23935        41.26019         0.21739
C         51.07540        41.93340         0.11523
C         52.24396        44.16792         0.55148
C         50.95352        43.38599         0.36962
C         52.23969        45.60958         0.23627
C         51.01721        46.30743         0.12375
C         52.26188        48.45861         0.15431
C         51.02053        47.74070         0.05782
C         52.27446        49.90008         0.13928
C         51.03495        50.60612         0.08186
C         52.28339        52.77008        -0.15640
C         51.01485        52.03466         0.11249
C         52.28763        54.27570        -0.16099
C         51.07624        54.96150         0.41483
C         52.32759        57.21339         0.15997
C         51.02925        56.47885         0.38941
C         52.41542        58.67793        -0.19617
C         51.33050        59.44997        -0.65297
C         52.55471        61.51487        -0.38796
C         51.39238        60.84483        -0.75972
C         54.90046        39.83044         0.34910
C         54.80196        41.21424         0.14688
C         53.53416        41.91477         0.50749
C         54.76054        44.13648         0.11240
C         53.54822        43.42216         0.56302
C         54.72893        45.54599         0.07887
C         53.47423        46.30468         0.20105
C         54.77236        48.38042         0.57079
C         53.46755        47.71368         0.21714
C         54.75532        49.91505         0.49615
C         53.50423        50.64838         0.22202
C         54.80616        52.77651        -0.07533
C         53.56392        52.03579        -0.00336
C         54.82578        54.24196        -0.47704
C         53.57431        55.03236        -0.10292
C         54.88750        57.12671         0.22592
C         53.58172        56.39030        -0.01757
C         54.88479        58.57415        -0.22667
C         53.63798        59.36555        -0.00903
C         54.98521        61.46343         0.28337
C         53.70238        60.78078        -0.06102
C         55.12506        62.92753         0.27256
C         57.27354        39.81037        -0.18843
C         56.15195        39.17186         0.29254
C         57.13115        41.19443        -0.66992
C         55.92990        41.95883        -0.26662
C         57.10335        44.13295        -0.62261
C         55.92782        43.40515        -0.27389
C         57.10913        45.54137        -0.50847
C         55.93331        46.23880        -0.17735
C         57.19255        48.46248        -0.39908
C         55.91017        47.72177        -0.20429
C         57.24237        49.93995        -0.19811
C         56.03019        50.67416         0.24314
C         57.32265        52.80867         0.05807
C         56.03021        52.12321        -0.03385
C         57.33868        54.23543         0.08466
C         56.12400        54.95117        -0.10170
C         57.42697        57.02191        -0.30690
C         56.13014        56.34065        -0.11795
C         57.47045        58.53183        -0.51294
C         56.18079        59.29064        -0.40688
C         57.56791        61.39838         0.04019
C         56.27531        60.69069         0.10352
C         57.59185        62.76938         0.33385
C         56.34517        63.51124         0.37894
C         59.87829        37.05702        -0.41942
C         58.71994        37.70279        -0.23009
C         59.78586        39.91654        -0.74764
C         58.65185        39.20016        -0.03051
C         59.70099        41.29769        -1.05103
C         58.37378        41.94249        -1.14975
C         59.60237        44.17967        -1.32813
C         58.30148        43.44251        -1.17768
C         59.68547        45.55504        -0.76711
C         58.40453        46.27199        -0.46771
C         59.69949        48.38122        -0.34533
C         58.46632        47.73674        -0.44332
C         59.75665        49.79925         0.12860
C         58.54220        50.64993        -0.03632
C         59.78679        52.77552         0.57899
C         58.50798        52.08614         0.30862
C         59.87783        54.22567         0.35965
C         58.58517        54.96936         0.57917
C         59.89670        57.02014        -0.12165
C         58.67528        56.36268         0.04126
C         59.91717        58.45428        -0.34953
C         58.75578        59.22402        -0.33453
C         60.00816        61.35545        -0.14033
C         58.78014        60.66713        -0.18417
C         60.06848        62.72797         0.24154
C         58.85633        63.43457         0.50715
C         60.15536        65.39154         1.13485
C         58.93553        64.77176         0.97237
C         62.47340        36.14821         0.78570
C         62.39495        37.33621         0.06286
C         61.17443        37.75592        -0.74524
C         62.22190        40.00211        -1.01610
C         61.02818        39.26415        -0.78358
C         62.16309        41.38420        -1.31572
C         60.89667        42.04512        -1.32366
C         62.09060        44.20623        -1.57075
C         60.88332        43.45565        -1.44690
C         62.08728        45.63445        -1.35623
C         60.92976        46.32283        -0.94106
C         62.20964        48.42632        -0.52466
C         60.92714        47.67698        -0.52695
C         62.29665        49.86895        -0.15735
C         61.05145        50.50333         0.36075
C         62.36589        52.68741         0.38515
C         61.07870        51.98560         0.59307
C         62.36023        54.10038         0.27551
C         61.11187        54.86026         0.21598
C         62.38510        56.98639        -0.15010
C         61.15239        56.30316        -0.00470
C         62.45762        58.38060        -0.34961
C         61.20882        59.12068        -0.55540
C         62.54800        61.31085        -0.24710
C         61.24977        60.65223        -0.48029
C         62.57110        62.69858         0.01895
C         61.32927        63.40132         0.33272
C         62.62790        65.45655         0.82788
C         61.36594        64.73417         0.79312
C         62.77444        66.68040         1.43595
C         64.82403        36.55639         1.35150
C         63.66615        35.76860         1.42382
C         64.77520        37.76865         0.59201
C         63.55745        38.14915        -0.04548
C         64.67116        40.16287        -0.95142
C         63.49063        39.41421        -0.71730
C         64.61784        41.43856        -1.55335
C         63.36715        42.10950        -1.61280
C         64.57735        44.25535        -2.08265
C         63.31811        43.51803        -1.78925
C         64.60395        45.71039        -1.72283
C         63.39823        46.24975        -1.03576
C         64.77261        48.35229        -0.29817
C         63.46191        47.62015        -0.45126
C         64.77792        49.79573        -0.01632
C         63.59941        50.53099         0.14302
C         64.83340        52.66305         0.82924
C         63.57560        51.93792         0.38320
C         64.82290        54.10849         0.37675
C         63.62861        54.77519         0.17396
C         64.83719        56.97546         0.35896
C         63.68155        56.21623        -0.28801
C         64.89357        58.40215        -0.15690
C         63.71610        59.10165        -0.38075
C         64.97760        61.29640        -0.39212
C         63.75047        60.58034        -0.38807
C         65.00183        62.70760        -0.34816
C         63.79778        63.40218        -0.08074
C         65.03658        65.68139        -0.04338
C         63.75928        64.87607         0.06947
C         65.08550        66.97636         0.67108
C         63.99373        67.42151         1.36883
C         67.37907        34.75844         3.55387
C         66.22381        35.01370         2.81191
C         67.05535        37.20615         2.21103
C         66.03995        36.22251         2.10067
C         67.09924        38.37352         1.31307
C         65.92862        38.61442         0.45077
C         67.14982        40.40113        -0.81299
C         65.92228        39.70981        -0.41995
C         67.15989        41.41899        -1.72646
C         65.85568        41.99674        -2.22082
C         67.18499        44.26093        -2.00000
C         65.89644        43.52983        -2.23232
C         67.16121        45.61989        -1.84055
C         65.91393        46.42186        -1.65542
C         67.21621        48.55044        -1.07488
C         66.03653        47.70556        -0.86000
C         67.29805        49.84038        -0.54285
C         66.10766        50.43748         0.14366
C         67.36252        52.67065         0.21723
C         66.12931        51.90103         0.50061
C         67.33216        54.05424         0.27900
C         66.09058        54.81924         0.28815
C         67.40101        56.91171        -0.16988
C         66.12912        56.19378         0.20501
C         67.42545        58.37907         0.20578
C         66.15367        59.14155         0.02905
C         67.53423        61.23570        -0.24082
C         66.25420        60.51498        -0.59998
C         67.62053        62.68723        -0.67389
C         66.28294        63.45625        -0.58609
C         67.60995        65.60108         0.01360
C         66.32458        64.95499        -0.37169
C         67.60073        67.07763         0.13619
C         66.30110        67.79620         0.48119
C         67.55690        69.80984         1.21277
C         66.38111        69.14783         1.06724
C         69.64123        34.64355         5.53035
C         69.63922        35.54764         4.45073
C         68.36245        35.75698         3.73638
C         69.95267        37.83077         2.46534
C         68.08585        36.99687         3.13880
C         69.76426        38.29537         1.16132
C         68.47662        38.88679         0.76011
C         69.61607        39.89210        -1.33111
C         68.37819        39.60141        -0.54823
C         69.67310        41.17849        -2.07580
C         68.41363        42.00740        -2.38045
C         69.67510        44.35152        -2.52903
C         68.53905        43.51422        -1.90248
C         69.64815        45.76547        -2.36074
C         68.37140        46.44362        -2.06331
C         69.65131        48.64430        -1.70826
C         68.35937        47.94382        -1.77884
C         69.69575        49.97410        -1.20418
C         68.50724        50.59194        -0.63757
C         69.79199        52.64839        -0.21368
C         68.57891        51.95652        -0.15381
C         69.91826        53.99032         0.32713
C         68.58232        54.78884         0.48621
C         69.87715        56.89434         0.28521
C         68.66441        56.22119         0.26665
C         69.90843        58.35220         0.15172
C         68.71748        59.08550         0.06672
C         70.03075        61.23072        -0.24304
C         68.69982        60.52399        -0.05995
C         69.96972        62.68816         0.17097
C         68.80181        63.41146        -0.03363
C         70.02085        65.48381         0.56987
C         68.78168        64.84442         0.18996
C         70.10275        66.96313         0.67096
C         68.87751        67.79903         0.46266
C         70.02714        69.83815         1.32768
C         68.83705        69.18484         1.00373
C         70.11226        71.26697         1.45499
C         72.01852        34.91689         5.84602
C         70.80430        34.33673         6.23095
C         72.05309        35.79260         4.76754
C         70.88453        36.14601         4.05462
C         72.18546        37.03338         2.03958
C         71.02860        37.01144         2.88063
C         72.15961        37.66187         0.81999
C         70.91202        38.18943         0.24817
C         72.13137        39.64872        -1.59374
C         70.88941        39.13734        -1.00756
C         72.10021        40.74153        -2.39441
C         70.88042        41.49375        -2.62976
C         71.86097        44.68047        -3.62149
C         70.82203        43.83871        -3.17512
C         71.86236        46.02969        -3.32471
C         70.75627        46.60068        -2.66654
C         71.99076        48.74844        -2.31632
C         70.79038        48.01108        -2.25387
C         72.03075        50.07429        -1.89716
C         70.91308        50.69611        -1.32861
C         72.26273        52.70548        -0.52878
C         70.95119        52.17859        -1.05740
C         72.34627        53.96837        -0.04939
C         71.15421        54.76251         0.16510
C         72.35743        56.90417         0.38713
C         71.13463        56.15429         0.33120
C         72.36717        58.27134         0.41976
C         71.16828        59.04084         0.27675
C         72.31581        61.15820         0.79470
C         71.19619        60.45637         0.32622
C         72.31530        62.54375         0.91311
C         71.17481        63.32481         0.62224
C         72.43725        65.44602         1.08348
C         71.19151        64.75360         0.77337
C         72.48793        66.75558         1.40779
C         71.24608        67.55379         1.44833
C         72.49779        69.78583         1.88791
C         71.24084        69.05115         1.66980
C         72.51101        71.14276         1.90501
C         71.30074        71.89421         1.71083
O         61.21938        59.95634        -1.76799
O         53.69204        42.62059         1.78258
O         68.05602        47.43749        -3.12592
O         46.55724        50.39971        -1.36347
O         65.16019        44.02349        -3.40984
O         60.37774        49.81767         1.46167
O         66.68791        58.87796         1.38529
O         57.49239        57.64600        -1.65485
O         65.04923        46.56556        -2.82706
O         68.95272        38.06574         3.42159
O         55.34111        58.97222        -1.56582
O         38.71720        50.33195         1.40038
O         71.05104        42.52565        -3.53856
O         55.56256        50.43348         1.62190
O         65.69830        47.59089         0.55759
O         70.91340        68.07400         2.77162
O         55.65004        60.82509         1.42947
O         69.88168        67.64733        -0.61083
O         50.75918        54.43824         1.74532
O         58.70820        44.02348        -2.47994
O         59.22436        45.64916         0.62195
O         62.23227        49.47123        -1.57908
O         68.63509        38.87931        -1.79769
O         66.39993        50.87118         1.52558
O         57.47793        41.31851        -2.12434
O         63.44668        46.45831         0.43059
O         51.79541        57.03072         1.53078
O         66.23446        64.38706        -1.72610
O         56.24000        48.21618        -1.53275
O         44.87748        49.16854         1.55300
O         60.44049        52.35900         1.85054
O         52.12997        53.56460        -1.43452
O         66.80558        67.73469        -0.90085
O         67.73760        39.58709         1.79730
O         50.19972        58.84698        -1.20440
O         64.07984        65.64140        -1.14385
O         57.90173        50.51610        -1.37030
O         51.40791        43.82423         1.69554
O         69.31254        54.25082         1.62685
O         70.69387        37.70474        -1.12087
O         63.98690        56.18933        -1.71574
H         63.21401        55.81646        -2.18953
O         65.70032        41.55817        -3.61572
H         65.19904        42.28319        -4.06754
O         48.98755        56.41498         2.55472
H         49.84186        55.92447         2.63498
O         64.56884        57.08850         1.77969
H         65.29975        57.62857         2.16335
O         61.49125        37.36091        -2.12096
H         60.80250        37.74014        -2.70666
O         54.81504        54.23391        -1.93751
H         53.93364        53.88166        -2.21139
O         67.42712        56.89594        -1.63994
H         66.55835        57.21987        -1.96557
O         64.74829        52.71945         2.28421
H         65.14203        51.88041         2.62055
O         70.27610        61.22553        -1.68727
H         69.52790        61.71993        -2.10894
O         58.43032        55.08323         2.04784
H         58.78301        54.26055         2.45228
O         58.94906        39.42274         1.39571
H         59.84484        39.06302         1.57276
O         55.00595        47.99979         1.95385
H         55.36139        48.79026         2.42515
O         70.76869        52.83028        -2.37128
H         69.97985        52.42952        -2.79468
O         68.84037        43.40510        -0.48517
H         68.91879        44.30589        -0.10673
O         67.92417        62.59855        -2.11376
H         67.60242        63.45275        -2.50350
O         66.35346        60.23825        -2.03496
H         66.75335        61.03781        -2.45635
O         68.27639        42.04056        -3.80711
H         67.39076        41.66974        -4.05313
O         54.97030        57.27455         1.68572
H         54.75819        56.41391         2.10537
O         43.42843        50.88368        -1.38601
H         44.30918        51.17962        -1.70416
O         42.38972        52.25403         2.73873
H         41.59700        52.65070         3.15875
H         36.42513        49.71669         0.28152
H         35.26398        51.04012        -1.50699
H         38.49677        53.90652        -1.48605
H         36.32259        53.12102        -2.39245
H         39.07299        47.78998         1.27791
H         39.11089        54.78580         0.52017
H         41.17941        46.60386         0.70096
H         41.15069        55.93054         1.21397
H         44.76935        44.59487        -0.62209
H         42.66304        45.79406        -0.40053
H         44.83559        57.95991         1.91361
H         42.73752        56.72637         1.98370
H         46.43451        43.62194        -0.65282
H         46.12105        58.84282         0.71447
H         48.52664        42.39025        -0.40050
H         47.95203        59.90610        -0.56946
H         52.25308        40.18675        -0.02492
H         50.17486        41.37901        -0.18634
H         52.58430        62.61155        -0.43126
H         50.51821        61.39629        -1.12792
H         54.02345        39.26917         0.69870
H         54.22850        63.55882         0.19874
H         56.21323        38.13815         0.66030
H         56.39559        64.60836         0.41214
H         59.87495        35.95914        -0.50834
H         57.79834        37.11768        -0.08759
H         60.18096        66.42817         1.49545
H         58.02103        65.32381         1.22501
H         61.59369        35.49435         0.86966
H         61.94099        67.12833         1.99333
H         63.67699        34.83286         1.99955
H         64.02475        68.39256         1.88120
H         67.51737        33.76421         4.00206
H         65.46642        34.22139         2.73690
H         67.53731        70.82783         1.62633
H         65.44628        69.65187         1.34863
H         68.69186        34.18323         5.83912
H         69.21494        71.87361         1.26947
H         72.94195        34.68192         6.39276
H         70.76733        33.64225         7.08127
H         73.01120        36.24720         4.47799
H         73.10070        36.51287         2.35634
H         73.04136        37.61192         0.16645
H         73.06443        39.08940        -1.43949
H         73.01751        41.09984        -2.88144
H         72.70049        44.22785        -4.16481
H         72.71464        46.64439        -3.63902
H         72.90700        48.29902        -2.71934
H         72.96351        50.64050        -2.02309
H         73.17509        52.10386        -0.64429
H         73.32945        54.38785         0.21069
H         73.31263        56.36394         0.43589
H         73.33325        58.78892         0.48759
H         73.20663        60.61187         1.13357
H         73.22185        63.02265         1.30396
H         73.37496        64.87546         1.06873
H         73.44376        67.21924         1.68852
H         73.42294        69.21929         2.06174
H         73.45087        71.68590         2.07646
H         71.34551        72.99105         1.75260
