         204
 CSIRO Nanostructure Databank - Neutral Graphene Oxide Data Set
C        -11.11760         0.72393        -0.40990
C         -9.91016         1.48940        -0.34578
C         -8.60723         0.73001        -0.32204
C         -7.52498         1.51298         0.38380
C         -6.27092         0.77595         0.79806
C         -5.00093         1.52671         0.77370
C         -3.75973         0.78277         1.09487
C         -2.44213         1.53613         1.21151
C         -1.21788         0.74666         0.76085
C         -0.02667         1.45024         0.68039
C          1.25102         0.70868         0.72488
C          2.54772         1.46186         0.55600
C          3.75821         0.69942         0.18261
C          4.95205         1.40414        -0.10283
C          6.18965         0.72762        -0.18995
C          7.43771         1.45925        -0.23799
C          8.67305         0.73705        -0.16492
C          9.90945         1.46778        -0.10723
C         11.14021         0.71467        -0.06969
C         -9.85182         2.87226        -0.45820
C         -8.61820         3.59874        -0.41554
C         -7.39938         2.92080        -0.03519
C         -6.17079         3.56039         0.01171
C         -4.96484         2.86549         0.41045
C         -3.67896         3.57892         0.36209
C         -2.48124         2.92586         0.61845
C         -1.22092         3.61481         0.52711
C          0.00399         2.89923         0.61083
C          1.24214         3.60480         0.43037
C          2.48596         2.91759         0.31322
C          3.66180         3.60296        -0.01507
C          4.88344         2.84748        -0.34868
C          6.20470         3.61233        -0.44996
C          7.45233         2.86472        -0.25733
C          8.67590         3.59862        -0.12582
C          9.89644         2.86515        -0.06669
C         -8.57441         5.00620        -0.58818
C         -7.36517         5.70409        -0.57148
C         -6.07170         4.92277        -0.62893
C         -4.85983         5.69959        -0.19900
C         -3.67462         5.00387         0.10892
C         -2.44901         5.72976         0.19826
C         -1.21549         5.03072         0.33452
C          0.01380         5.74440         0.26480
C          1.24348         5.02779         0.26548
C          2.47391         5.73548         0.08853
C          3.69138         5.02540        -0.06107
C          4.94713         5.73974        -0.14357
C          6.17858         5.05772        -0.20528
C          7.42477         5.74989        -0.09436
C          8.64051         5.01499        -0.08405
C         -7.30440         7.11841        -0.68292
C         -6.10836         7.81696        -0.55849
C         -4.87416         7.11326        -0.24419
C         -3.68824         7.84160        -0.00840
C         -2.45636         7.15628         0.11308
C         -1.21583         7.87631         0.10205
C          0.00771         7.17409         0.13620
C          1.25102         7.88151         0.04523
C          2.47321         7.17106         0.02732
C          3.71496         7.87726        -0.04202
C          4.94224         7.16889        -0.07269
C          6.19283         7.87726        -0.05128
C          7.39891         7.17223        -0.02667
C         -6.04143         9.25045        -0.75811
C         -4.92776         9.96531        -0.47805
C         -3.73795         9.33486         0.19334
C         -2.43236        10.00838        -0.11280
C         -1.22377         9.32122        -0.04980
C          0.02771        10.00548        -0.12816
C          1.24941         9.31865        -0.06063
C          2.49965        10.00627        -0.09518
C          3.71028         9.31556        -0.06593
C          4.97886        10.00410        -0.06703
C          6.15916         9.32031        -0.04165
C        -11.11834        -0.64827        -0.31670
C         -9.91991        -1.41657        -0.05203
C         -8.69780        -0.70209         0.12808
C         -7.49908        -1.37760         0.44290
C         -6.28893        -0.68832         0.63919
C         -5.00718        -1.39164         0.45168
C         -3.74068        -0.70416         0.87003
C         -2.45367        -1.39340         0.60604
C         -1.24893        -0.69800         0.59820
C          0.01288        -1.42107         0.40360
C          1.25120        -0.73805         0.47534
C          2.48193        -1.42921         0.29051
C          3.73638        -0.70138         0.15767
C          4.97012        -1.41385        -0.03948
C          6.20439        -0.69325        -0.10825
C          7.44148        -1.40418        -0.13853
C          8.67635        -0.67952        -0.14638
C          9.91496        -1.40763        -0.11447
C         11.14335        -0.65098        -0.08300
C         -9.94479        -2.82195         0.00151
C         -8.77484        -3.59874         0.27519
C         -7.55260        -2.85033         0.67311
C         -6.25718        -3.60840         0.76816
C         -5.00529        -2.89018         0.39482
C         -3.73347        -3.63104         0.49633
C         -2.51175        -2.82299         0.24679
C         -1.21179        -3.57419         0.10349
C          0.03248        -2.82516         0.26613
C          1.25656        -3.55030         0.22527
C          2.48037        -2.83043         0.16366
C          3.70043        -3.55646        -0.33566
C          4.98794        -2.82072        -0.12226
C          6.20883        -3.53760        -0.13950
C          7.44741        -2.82314        -0.12238
C          8.68734        -3.54620        -0.12089
C          9.90602        -2.80595        -0.10905
C         -8.73652        -4.96998         0.06910
C         -7.55553        -5.81442         0.32952
C         -6.22974        -5.10080         0.68467
C         -4.95314        -5.77248         0.41169
C         -3.72261        -5.00496         0.46704
C         -2.43387        -5.76997         0.67448
C         -1.19553        -5.03045         0.25400
C          0.02024        -5.70423         0.18553
C          1.24107        -4.97558         0.16162
C          2.50907        -5.75543         0.38134
C          3.77202        -4.99513         0.06313
C          4.96170        -5.68380        -0.04393
C          6.21345        -4.96856        -0.13913
C          7.44414        -5.68201        -0.11959
C          8.66140        -4.96073        -0.12029
C         -7.40152        -7.14959        -0.24601
C         -6.18583        -7.81514        -0.22678
C         -4.94246        -7.13684         0.10414
C         -3.67976        -7.84408        -0.05150
C         -2.45626        -7.18707         0.15740
C         -1.22257        -7.87029        -0.00010
C          0.03024        -7.16862         0.06997
C          1.22331        -7.84536        -0.15789
C          2.48847        -7.05962        -0.40075
C          3.76583        -7.83762        -0.18691
C          4.96012        -7.14456        -0.05717
C          6.22707        -7.84106        -0.07281
C          7.41696        -7.12262        -0.08694
C         -6.11094        -9.20006        -0.65147
C         -4.93245        -9.87593        -0.71447
C         -3.67079        -9.22886        -0.42707
C         -2.46088        -9.92188        -0.52061
C         -1.21646        -9.26869        -0.31731
C          0.02472        -9.95346        -0.43193
C          1.24581        -9.26778        -0.34611
C          2.51730        -9.94392        -0.41689
C          3.73427        -9.27074        -0.28996
C          5.00327        -9.96208        -0.24180
C          6.18470        -9.28399        -0.13437
O         -6.92851        -3.15149         1.97698
O         -1.97769        -3.10714        -1.10333
O          3.51422        -3.62422        -1.81406
H          2.99592        -4.43991        -2.00682
O         -8.15287         0.67511        -1.72438
H         -8.83019         0.18165        -2.23406
O         -2.31575        -5.88997         2.14615
H         -3.08605        -6.41162         2.45918
O         -5.02279        -2.09291        -0.85151
O          5.44825         3.21806        -1.65296
O          2.06695         1.09399         1.90141
O         -2.22440         1.76976         2.63747
H         -2.59946         0.98902         3.10774
O         -7.29252         1.24921         1.77936
O         -5.85174         4.65809        -2.06992
H         -6.62235         4.13979        -2.38759
O         -3.91088        -0.15738         2.22851
O          2.55048        -6.10875         1.79586
H          2.47138        -5.28460         2.31992
O         -7.03180        -5.73945         1.70716
O         -3.95028         9.54395         1.65086
H         -3.20548         9.10496         2.11502
O          2.47036        -6.66637        -1.81400
H          2.45618        -7.48551        -2.35298
H         12.09607        -1.20063        -0.05854
H         12.09044         1.26793        -0.03358
H         10.84710         3.41444         0.00730
H          9.59000         5.56673        -0.01589
H          8.34949         7.72394         0.02607
H          7.11450         9.86555        -0.02907
H          4.97633        11.10412        -0.07584
H          2.50156        11.10571        -0.14279
H          0.02796        11.10132        -0.22725
H         -2.42377        11.10495        -0.21070
H         -4.90764        11.05197        -0.65054
H         -6.92982         9.75219        -1.17215
H         -8.23980         7.67728        -0.84384
H         -9.51941         5.56187        -0.69150
H        -10.78419         3.44133        -0.59991
H        -12.07093         1.25856        -0.53983
H        -12.07029        -1.19345        -0.39771
H        -10.88715        -3.34683        -0.21563
H         -9.63222        -5.46598        -0.33636
H         -8.28096        -7.64403        -0.68658
H         -7.05267        -9.71206        -0.89897
H         -4.91765       -10.93430        -1.01413
H         -2.46927       -10.99010        -0.78503
H          0.02216       -11.03790        -0.61913
H          2.51865       -11.04080        -0.50830
H          5.00317       -11.06073        -0.30181
H          7.13591        -9.83689        -0.11773
H          8.37522        -7.66453        -0.10033
H          9.61264        -5.51406        -0.10721
H         10.86154        -3.35208        -0.09390
