         234
 CSIRO Nanostructure Databank - Neutral Graphene Oxide Data Set
C          1.36658         1.96662        -0.49631
C          1.29484         3.37597        -0.44353
C          2.57789         1.31472        -0.39223
C          2.43737         4.15583        -0.26790
C          1.19298         6.31733        -0.61844
C          1.15647         7.70052        -0.68551
C          2.39178         5.62664        -0.31878
C          2.33294         8.47315        -0.55284
C          1.13389        10.67302        -0.60432
C          1.12685        12.07637        -0.41851
C          2.30441         9.92486        -0.63063
C          2.28660        12.82308        -0.23080
C          1.12904        14.99585         0.19515
C          1.17319        16.40709         0.24674
C          2.28116        14.20974         0.18411
C          2.37422        17.10755         0.30092
C          2.46207        18.52014         0.05543
C          3.77578         2.06013        -0.19442
C          3.70037         3.49002        -0.11101
C          5.02503         1.41216        -0.05769
C          4.88877         4.22627         0.12753
C          3.56679         6.38260        -0.13529
C          3.56276         7.79108        -0.32012
C          4.79230         5.70426         0.42897
C          4.81739         8.52919        -0.30550
C          3.58204        10.64502        -0.71274
C          3.58202        12.17709        -0.49912
C          4.84209         9.91997        -0.48395
C          4.84678        12.82644        -0.06961
C          3.56043        14.83741         0.54974
C          3.60887        16.38033         0.60707
C          4.83973        14.13033         0.35412
C          4.91114        17.04721         0.40172
C          3.66570        19.16572         0.01568
C          4.92096        18.46073         0.15970
C          6.20325         2.13739         0.17425
C          6.12258         3.57209         0.27435
C          7.46068         1.46979         0.34555
C          7.32866         4.34173         0.50571
C          6.07298         6.42792         0.11431
C          6.04644         7.78360        -0.16367
C          7.31200         5.71493         0.31402
C          7.31106         8.46909        -0.47280
C          6.05553        10.69769        -0.43301
C          6.08185        12.06958        -0.17002
C          7.32643         9.99479        -0.63392
C          7.34702        12.76384         0.01880
C          6.10457        14.83901         0.80389
C          6.10423        16.32472         0.45868
C          7.36288        14.13577         0.34409
C          7.34462        17.01621         0.35323
C          6.13908        19.13944         0.09227
C          7.36779        18.44490         0.22556
C          8.63370         2.15532         0.64976
C          8.58670         3.62809         0.83549
C          9.85356         1.50685         0.96514
C          9.89116         4.39045         0.92671
C          8.54162         6.51864         0.50292
C          8.57314         7.85718        -0.10916
C          9.83803         5.90274         0.93059
C          9.76642         8.50265        -0.35683
C          8.60257        10.66691        -0.40600
C          8.58941        12.06534        -0.12753
C          9.80246         9.93536        -0.46650
C          9.82765        12.75206         0.00784
C          8.59030        14.84398         0.34712
C          8.58494        16.30761         0.40494
C          9.80609        14.14753         0.18334
C          9.78401        17.02304         0.43806
C          8.60804        19.13876         0.24124
C          9.81885        18.45231         0.38491
C         11.08043         2.18960         1.10443
C         11.20051         3.64851         0.73844
C         12.28875         1.49899         1.23011
C         12.41517         4.44231         1.18277
C         11.12666         6.78023         0.87206
C         11.01355         7.63421        -0.41608
C         12.39086         5.91481         0.90788
C         12.23635         8.48105        -0.87516
C         11.06921        10.63998        -0.39016
C         11.08742        12.04416        -0.14457
C         12.27971         9.94799        -0.53064
C         12.33184        12.70328        -0.03923
C         11.10495        14.88802         0.01601
C         11.04780        16.28027         0.60100
C         12.33384        14.10447         0.51095
C         12.34208        17.01631         0.64928
C         11.09320        19.13881         0.38469
C         12.30915        18.48742         0.46671
C         13.49808         2.14562         0.82139
C         13.32405         3.56829         0.32496
C         14.66751         1.42511         0.72740
C         14.60742         4.21784        -0.19009
C         13.59612         6.57349         0.30360
C         13.54678         7.87022        -0.44201
C         14.73391         5.71071        -0.12608
C         14.74907         8.46899        -1.16307
C         13.53495        10.63396        -0.58315
C         13.55135        12.04146        -0.29917
C         14.76611         9.96301        -0.87638
C         14.79882        12.78326        -0.40102
C         13.60184        14.88304         0.20302
C         13.58554        16.26529         0.36004
C         14.79282        14.19122        -0.17727
C         14.84656        17.02547         0.64015
C         13.56493        19.17223         0.33429
C         14.77732        18.50706         0.34030
C         15.92868         1.97552         0.20530
C         15.90703         3.42486        -0.18481
C         17.21928         1.30920         0.52616
C         17.18935         4.17384         0.07483
C         16.03305         6.44656        -0.20259
C         16.04032         7.81763        -0.75325
C         17.28189         5.65077        -0.19459
C         17.22834         8.47723        -0.93626
C         15.99269        10.66840        -0.95696
C         15.98310        12.09203        -0.80859
C         17.26062         9.92883        -1.08694
C         17.21519        12.83924        -1.15567
C         15.92312        15.07189        -0.66951
C         16.08580        16.36598         0.11185
C         17.24248        14.34222        -0.96509
C         17.26877        17.05593         0.23933
C         16.02585        19.19155         0.28357
C         17.24427        18.52910         0.40431
C         18.42530         1.93637         0.38378
C         18.46073         3.41573         0.22659
C         19.70582         1.31215         0.65430
C         19.74658         4.09401        -0.05530
C         18.48582         6.20046        -0.88339
C         18.48084         7.68770        -1.13815
C         19.76818         5.40724        -0.75916
C         19.79776         8.41943        -1.20053
C         18.50005        10.58425        -1.04857
C         18.53589        12.06056        -1.22075
C         19.75784         9.87996        -0.92261
C         19.84649        12.76827        -0.97081
C         18.55818        15.04822        -0.71337
C         18.51914        16.31818         0.05208
C         19.86314        14.27951        -0.68618
C         19.64305        16.71189         0.72427
C         18.44815        19.34491         0.39023
C         19.63019        18.89276         0.92311
C         20.86191         2.03549         0.65970
C         20.91098         3.43154         0.25485
C         22.18351         4.12933         0.13157
C         21.08994         6.11761        -0.88471
C         21.09194         7.64612        -1.05170
C         22.26450         5.39573        -0.33709
C         22.24663         8.43200        -0.58816
C         20.94282        10.53463        -0.57689
C         20.99154        11.97777        -0.46637
C         22.15927         9.76437        -0.37521
C         22.11915        12.64290        -0.00641
C         21.03756        14.83552         0.03061
C         20.97646        16.20734         0.50944
C         22.14802        14.03833         0.22538
C         22.07343        17.04032         0.69603
C         20.98757        19.34207         0.76372
C         22.05892        18.47291         0.79342
O         12.67195         5.32855         2.26994
O          8.94856         6.45168         1.93636
O         16.88316         6.39314         1.00111
O          7.32473         9.10208        -1.79373
O          3.52792        15.56868         1.83142
O         17.94155        15.05528        -2.03492
O         20.22036        13.73289        -1.99027
O         11.68147        16.52503         1.90896
O         17.73604         3.96733         1.42169
O         19.07491         8.06051        -2.41793
O         14.43284         5.01977        -1.39080
O         17.81769        12.45101        -2.42812
O         13.87894         7.83781         0.97738
O         15.92950         2.42279        -1.23158
O          3.66874        11.58908        -1.83370
O         19.52200        17.71366         1.69267
O          9.21965         3.92790         2.14113
O         18.94532         5.37663        -1.98292
O         12.05241         3.52548        -0.59124
O         21.36581         6.74699        -2.16851
O         10.78827         6.62874        -1.43178
H         11.21621         6.95755        -2.26305
O         15.42858        15.55852        -1.96229
H         16.22760        15.73747        -2.51386
O         11.15675         7.66883         1.98074
H         11.35459         7.14560         2.78633
O         12.19443         8.45333        -2.33102
H         11.58361         9.15785        -2.63241
O         12.26432        13.93341         1.94495
H         12.17364        14.83360         2.34612
O         14.97627        16.95506         2.11249
H         14.15591        17.33413         2.49705
O          6.12242        14.76599         2.26546
H          5.24734        15.11542         2.56606
O         14.65463         8.25493        -2.59107
H         15.44637         8.64838        -3.01429
O          4.62949         5.79610         1.89303
H          5.44500         5.43171         2.30055
O         11.29906        15.06142        -1.41886
H         10.47017        15.41581        -1.80337
H          0.44155         1.39005        -0.63664
H          0.30868         3.84706        -0.55167
H          2.63035         0.21808        -0.44911
H          0.25886         5.76139        -0.77444
H          0.19632         8.19551        -0.88464
H          0.16032        10.16340        -0.61271
H          0.14811        12.56143        -0.29744
H          0.15362        14.52594         0.00734
H          0.23634        16.96539         0.10438
H          1.52867        19.08107        -0.09930
H          5.06875         0.31440        -0.11793
H          3.70182        20.25078        -0.15883
H          7.48457         0.37237         0.26628
H          6.14797        20.22961        -0.05426
H          9.86552         0.40767         1.02381
H          8.60718        20.23587         0.16041
H         12.29937         0.42350         1.45861
H         11.08409        20.23230         0.25841
H         14.67380         0.38785         1.09647
H         13.55205        20.26848         0.22995
H         17.18245         0.24915         0.82106
H         16.02010        20.28946         0.20491
H         19.72608         0.23740         0.88710
H         18.39448        20.33740        -0.08202
H         21.81458         1.53967         0.89691
H         23.09489         3.60359         0.45154
H         23.24882         5.87427        -0.43681
H         23.21463         7.92615        -0.47136
H         23.07066        10.29145        -0.06717
H         23.00650        12.07721         0.30335
H         23.04222        14.46620         0.69967
H         23.07195        16.59775         0.55565
H         21.18212        20.41070         0.58688
H         23.05648        18.93551         0.72264
