         316
 CSIRO Nanostructure Databank - Neutral Graphene Oxide Data Set
C         29.87610        32.90994        -1.38145
C         30.67143        33.39693        -0.52352
C         30.24715        36.15175         0.42598
C         29.66355        37.20023         0.20530
C         29.75264        40.59112        -1.24580
C         30.64040        41.43239        -1.18137
C         32.68572        28.94837         0.60469
C         31.66060        29.55081         0.96080
C         32.70682        31.67923         0.79288
C         31.54079        31.00214         1.07408
C         32.74988        33.19345         0.90017
C         31.48020        33.89249         0.44620
C         32.65870        36.05943         0.66085
C         31.33180        35.29497         0.97773
C         32.74409        37.43574         1.25791
C         29.42328        38.60781         0.07390
C         32.96903        40.12633         0.02323
C         29.15733        39.29606        -1.09906
C         33.10487        41.52613        -0.46842
C         31.97223        42.00027        -1.49822
C         33.13830        44.17335        -1.21859
C         32.15394        43.47793        -1.46595
C         35.62742        27.48399         0.12894
C         35.24154        28.75873         0.09905
C         34.08706        29.47133         0.74843
C         35.23282        31.71389         0.28281
C         33.91100        30.93617         0.19319
C         35.18947        33.06356         0.18585
C         33.86335        33.80268        -0.00364
C         35.29390        36.14567         0.42143
C         33.93729        35.36175         0.24302
C         35.21494        37.33296         1.42344
C         34.01908        38.18868         1.07554
C         35.29950        40.29646         1.08590
C         34.06135        39.53165         0.85694
C         35.24539        41.79564         0.84181
C         34.23118        42.25301        -0.21097
C         35.58282        44.49124        -0.20270
C         34.41963        43.68622        -0.68568
C         35.78796        45.94453        -0.08381
C         37.82248        27.32530        -0.58543
C         36.64916        26.73057        -0.21519
C         37.74974        28.82984        -0.68712
C         36.41570        29.61562        -0.52730
C         37.73536        31.70608        -0.17003
C         36.54708        30.90951         0.35269
C         38.00116        32.90552         0.56550
C         36.27383        34.04728        -0.16234
C         37.85073        35.87399         0.85242
C         36.46291        35.17972         0.85493
C         37.87825        37.31538         1.29153
C         36.57624        38.06256         1.41376
C         37.78038        40.12994         0.42242
C         36.59645        39.56340         1.21068
C         37.76266        41.65899         0.34805
C         36.63901        42.37149         0.60954
C         38.01223        44.51552         0.46429
C         36.66727        43.87157         0.74209
C         38.06060        45.99786         0.72262
C         36.70788        46.55504         0.48568
C         40.30085        24.56567        -0.97317
C         39.25919        25.21670        -0.89494
C         40.39810        27.31871        -0.63804
C         39.06590        26.68622        -1.14896
C         40.26551        28.68616         0.01963
C         39.06918        29.51465        -0.48749
C         40.32831        31.62155         0.24168
C         39.03027        30.93468        -0.03304
C         40.39771        33.10912         0.19027
C         39.05922        33.80948        -0.01222
C         40.37086        35.91220         0.58040
C         39.00213        35.23934         0.48925
C         40.23621        37.42239         0.27254
C         39.21765        38.10757         1.25696
C         40.29973        40.20057         0.36072
C         39.08622        39.58556         0.93668
C         40.25916        41.55265        -0.29790
C         38.94660        42.35873        -0.34676
C         40.34419        44.55981        -0.34141
C         39.10027        43.82768         0.05018
C         40.50435        46.01078        -0.08318
C         39.34365        46.73612         0.51369
C         40.45926        48.79733        -0.13080
C         39.46686        48.16598         0.23721
C         42.88071        24.49249        -0.69063
C         41.64697        25.15671        -1.26951
C         42.82276        27.25427        -0.11830
C         41.58611        26.64091        -0.62972
C         42.81422        28.69727         0.38784
C         41.56767        29.48355         0.02654
C         42.80999        31.67816         0.47994
C         41.58760        30.83496         0.13500
C         42.76641        32.94613        -0.41678
C         41.54137        33.77861        -0.07386
C         42.79432        35.99505        -0.05098
C         41.47900        35.28425        -0.31220
C         42.79118        37.37966         0.23120
C         41.58263        38.08733         0.34091
C         42.83817        40.30817         0.26523
C         41.61924        39.54724         0.72620
C         42.80319        41.62629        -0.06978
C         41.58272        42.23744        -0.73051
C         42.92708        44.46823        -0.87098
C         41.56397        43.77539        -0.73535
C         42.84939        45.98717        -0.82138
C         41.66417        46.68538        -0.57903
C         42.97876        48.76812        -0.69410
C         41.59434        48.26125        -0.93882
C         43.87816        25.18702        -0.43374
C         45.29997        27.18743         0.35619
C         44.01684        26.55175        -0.01572
C         45.37235        28.70895         0.31807
C         44.08881        29.43876        -0.10494
C         45.41444        31.61632         0.21116
C         44.12295        30.89089         0.37969
C         45.38101        33.07786        -0.14278
C         44.07734        33.74980        -0.43875
C         45.28915        35.90285         0.25368
C         44.05392        35.29276        -0.53728
C         45.30522        37.42463        -0.02195
C         44.06734        38.08999         0.72317
C         45.22315        40.24659        -0.45421
C         44.18973        39.68284         0.57435
C         45.25426        41.75931        -0.20605
C         44.05930        42.39331        -0.08907
C         45.26719        44.61984         0.08865
C         43.93935        43.87677         0.16000
C         45.07292        46.15617         0.28383
C         44.25629        46.63881        -0.94725
C         43.99121        48.10308        -0.91595
C         47.72810        27.26455        -0.09201
C         46.64140        26.68594         0.04729
C         47.89396        28.66863        -0.61349
C         46.73031        29.43031         0.18910
C         47.90934        31.58815        -0.02596
C         46.60785        30.86695        -0.38341
C         47.88879        33.08246         0.09081
C         46.63512        33.86523        -0.00781
C         47.91190        35.96857         0.09063
C         46.64067        35.23000         0.00042
C         47.90870        37.43792         0.15756
C         46.58826        38.17139         0.38467
C         47.79195        40.39578         0.12087
C         46.62711        39.54102        -0.37605
C         47.81618        41.82321        -0.36791
C         46.49179        42.54080        -0.44281
C         47.77183        44.77661        -0.56259
C         46.42941        44.02240        -0.28646
C         47.51908        46.16363        -0.08218
C         46.46793        46.68577         0.27068
C         50.48304        28.91089        -0.26439
C         49.17394        29.43019        -0.37507
C         50.39587        31.54849         0.14117
C         49.20878        30.85483        -0.17964
C         50.44274        33.02910        -0.04407
C         49.15771        33.82321        -0.14423
C         50.43244        36.01582        -0.10407
C         49.11334        35.28782         0.05134
C         50.37120        37.40710         0.55944
C         49.07720        38.15377         0.23896
C         50.38847        40.39527         0.11248
C         49.07238        39.64960         0.35903
C         50.22651        41.88956         0.47810
C         49.14908        42.59686        -0.35745
C         50.19163        44.60511         0.41189
C         48.95504        44.07215         0.05085
C         51.61432        29.43211        -0.09363
C         52.83930        31.66586         0.50172
C         51.65184        30.74970         0.67532
C         52.70859        32.89503         0.63266
C         51.66242        33.82629         0.34097
C         52.63751        36.11019         0.83011
C         51.62960        35.18366         0.43522
C         52.75035        37.33202         1.04993
C         51.71096        38.25113         0.34964
C         52.71654        40.60455         0.85047
C         51.54585        39.66328         0.93084
C         52.68110        41.84449         0.81996
C         51.81933        42.81778         0.15136
C         51.32818        44.11269         0.72158
O         43.99037        37.85583         2.10075
O         44.90199        33.22759        -1.53915
O         35.58772        43.91027        -1.51472
O         45.27759        27.97617         1.58551
O         36.43651        34.29580        -1.38031
O         40.13101        40.34120        -1.12116
O         32.07746        39.38290        -0.37833
O         38.87592        46.36170         1.84990
O         49.88538        33.43576        -1.37541
O         40.67523        44.25089        -1.78394
O         38.55224        29.31565        -1.82820
O         45.00022        31.15890         1.51696
O         36.01318        40.16906         2.39209
O         48.27804        40.19623         1.47877
O         39.53559        31.06151         1.37630
O         47.87760        32.23601         1.28839
O         33.09595        36.03944        -0.72332
O         37.28792        37.61266         2.61464
O         47.16472        42.00676        -1.65851
O         31.89256        37.84543         2.05044
O         29.76217        39.34862         1.17102
H         30.33683        38.81698         1.76869
O         44.75390        40.09015        -1.80540
H         43.91649        40.59536        -1.90792
O         32.34611        41.50933        -2.77483
H         32.08833        40.56671        -2.83908
O         31.16349        35.24320         2.39821
H         31.11222        36.17389         2.72026
O         45.06081        37.57034        -1.40929
H         45.74673        38.13018        -1.85142
O         33.11149        33.58757         2.23388
H         32.38764        33.33072         2.84349
O         39.63488        37.58331        -1.03237
H         40.12164        36.97935        -1.65330
O         41.80097        25.31059        -2.64646
H         41.75524        24.43686        -3.08375
O         39.78218        37.96391         2.58145
H         39.07115        38.19162         3.22279
O         44.33879        46.46291         1.43806
H         44.85839        46.23192         2.23364
O         35.62967        36.75431        -0.81694
H         35.86958        36.04388        -1.46287
O         49.94670        42.07663         1.82746
H         50.38962        41.37247         2.35686
O         37.71658        33.01814         1.83752
H         37.30123        32.16055         2.14809
O         45.04202        35.57527         1.62117
H         44.68442        36.38167         2.10463
O         39.04179        26.86508        -2.56440
H         38.12834        26.72453        -2.88785
O         38.56116        42.38121        -1.74271
H         38.47066        41.44032        -2.02005
O         36.77803        30.56601         1.74724
H         35.93176        30.22259         2.14010
O         30.44354        31.60348         1.57295
H         29.69201        30.98089         1.60477
O         52.13638        42.91316        -1.18340
H         51.35866        43.26332        -1.68117
O         36.13129        34.66231         2.13576
H         35.97968        35.41344         2.76093
O         42.65442        32.13747         1.82726
H         42.82908        31.38782         2.43467
O         50.65166        36.14972        -1.52822
H         50.53130        35.25016        -1.92235
O         43.43454        44.09806        -2.16783
H         42.68123        44.11895        -2.79700
O         46.39084        30.89233        -1.80293
H         46.99708        30.24796        -2.24636
O         44.02809        29.43884        -1.54034
H         44.70894        30.06597        -1.89407
O         33.48748        33.59609        -1.36635
H         34.21693        33.91739        -1.94116
O         34.34452        29.53648         2.16759
H         34.38112        28.62150         2.51912
O         33.63064        30.76226        -1.20693
H         33.43040        31.64988        -1.58791
O         40.86782        35.68444         1.90821
H         40.51644        36.38941         2.51009
O         41.77664        41.89215        -2.13065
H         40.98645        42.22766        -2.61153
O         44.93999        46.22435        -2.10380
H         44.42339        46.47498        -2.89561
O         47.27354        29.57515         1.50004
H         46.80594        28.95324         2.10303
O         34.65569        42.34929         2.04092
H         35.23599        42.10057         2.79459
O         47.95834        44.77519        -1.98973
H         48.61763        45.46440        -2.21352
O         52.08656        38.35695        -0.98692
H         51.90061        37.50642        -1.45176
O         50.63425        40.30488        -1.28455
H         51.49546        40.73230        -1.48630
O         36.01931        30.01968        -1.82880
H         36.81171        29.97215        -2.41114
O         39.95408        28.39056         1.40585
H         39.91529        29.25886         1.87873
O         47.04772        39.22831        -1.73046
H         46.88063        40.03564        -2.27302
O         41.22062        35.52890        -1.72736
H         42.10239        35.56209        -2.18101
O         41.28800        48.32199        -2.30677
H         41.17174        49.25692        -2.57233
O         36.34171        44.18261         2.10609
H         36.40971        45.15409         2.23270
O         51.46101        30.48680         2.03564
H         52.23545        30.00423         2.38933
O         28.60864        38.67027        -2.18365
H         28.61384        39.26990        -2.95457
O         41.76218        39.53122         2.17334
H         42.53491        38.93000         2.38549
O         43.32563        44.03920         1.45637
H         43.77353        43.44199         2.09193
O         42.53980        32.44496        -1.75248
H         42.42929        33.20453        -2.36137
O         46.50046        38.32603         1.80367
H         47.22320        38.92566         2.10783
O         49.60239        42.65202        -1.72666
H         48.80681        42.87880        -2.27251
O         34.94678        36.84798         2.75634
H         35.29465        37.50877         3.39442
O         37.54960        39.60578        -0.92911
H         38.37368        39.13940        -1.22354
O         44.62947        40.19849         1.84190
H         44.60193        39.40569         2.45520
O         47.63932        28.63070        -2.02594
H         48.38195        28.16223        -2.46272
O         51.13435        39.60227         2.30535
H         51.89962        39.27891         2.82946
O         42.78556        28.69380         1.82980
H         43.59000        28.22661         2.16116
O         38.99535        33.81981        -1.45546
H         38.06716        33.97441        -1.75560
O         50.24947        37.10700         1.96671
H         50.16636        37.95801         2.45627
O         44.01255        35.52188        -1.97167
H         44.64357        34.87658        -2.37516
