         349
 CSIRO Nanostructure Databank - Neutral Graphene Oxide Data Set
C          1.43419         3.79526         2.26992
C          0.28358         4.58507         2.53355
C          1.16658         6.46954         1.20679
C          0.18735         5.89390         2.13318
C          1.21567         7.93072         0.91556
C          0.02550         8.73827         1.10637
C          0.96369        10.53996        -0.33548
C         -0.08524         9.98283         0.59626
C          1.06456        12.08894        -0.25029
C         -0.22514        12.82484        -0.45337
C          0.94016        14.86098        -1.17680
C         -0.21083        14.17420        -0.74778
C          0.92873        16.33813        -1.52714
C         -0.27891        17.11361        -1.05943
C          1.03581        19.09762        -0.24770
C         -0.23474        18.36934        -0.60305
C          1.00934        20.61063        -0.45241
C         -0.17779        21.35815        -0.38207
C          1.04843        23.46616        -0.36306
C         -0.16179        22.75491        -0.35506
C          1.09414        24.94145        -0.07722
C         -0.06430        25.82812        -0.31851
C          1.29339        27.86518         0.03409
C          0.03784        27.17767        -0.23179
C          1.36084        29.26308         0.21610
C          3.81100         3.67306         1.67415
C          2.55483         4.33531         1.63413
C          3.66485         6.35095         0.51236
C          2.41786         5.63501         0.94074
C          3.64348         7.82617         0.39546
C          2.37106         8.53459         0.43583
C          3.48529        10.59036        -0.31107
C          2.32526         9.91590        -0.03986
C          3.46897        11.88307        -1.05326
C          2.16460        12.62029        -1.18426
C          3.45054        14.77507        -1.91721
C          2.13487        14.08461        -1.56356
C          3.51736        16.24933        -1.46811
C          2.24446        16.96203        -1.04990
C          3.47014        19.09674        -0.78277
C          2.27954        18.43187        -0.81525
C          3.53932        20.60479        -0.80776
C          2.23005        21.31196        -0.50322
C          3.57210        23.40343        -0.48324
C          2.24541        22.72171        -0.45013
C          3.67159        24.88605        -0.32404
C          2.42684        25.64006         0.02596
C          3.72069        27.77023         0.32542
C          2.49289        27.12245         0.07481
C          3.77560        29.15652         0.54480
C          2.57711        29.89225         0.47437
C          6.25231         3.63590         1.39383
C          5.01369         4.29172         1.30041
C          6.20783         6.50841         0.89671
C          4.99250         5.67758         0.75165
C          6.13935         7.88171         0.46978
C          4.83901         8.50003         0.22702
C          6.03152        10.66667        -0.47063
C          4.79471         9.96558        -0.01644
C          5.97010        11.98259        -1.14795
C          4.73068        12.60953        -1.33467
C          5.91515        14.45197        -2.31593
C          4.68538        13.92290        -1.87261
C          5.92521        16.64823        -2.12445
C          4.72441        17.11492        -1.57351
C          5.98271        19.08850        -0.86693
C          4.73759        18.42293        -1.03075
C          6.06117        20.55491        -0.48458
C          4.70269        21.10064         0.07837
C          5.66733        23.28212         0.77414
C          4.70774        22.62200         0.06426
C          6.02504        24.66625         0.69193
C          4.96720        25.52556         0.10561
C          6.06771        27.48148         1.30094
C          4.97583        26.98085         0.41067
C          6.17047        28.97625         1.43588
C          5.10185        29.85658         0.79111
C          8.72931         3.73169         1.28340
C          7.46917         4.35501         1.24601
C          8.62617         6.47481         1.45113
C          7.40076         5.80967         1.19798
C          8.56818         8.36999         0.74240
C          7.30252         8.64631         0.18610
C          8.53946        10.68528        -0.55670
C          7.25586         9.82949        -0.76322
C          8.46467        11.98945        -1.30673
C          7.21972        12.62681        -1.46440
C          8.41154        14.78623        -1.90872
C          7.17438        13.94011        -2.03115
C          8.41632        16.28888        -1.76265
C          7.18052        17.14004        -1.75709
C          8.48413        19.12156        -1.07329
C          7.18533        18.40885        -1.14086
C          8.62493        20.16980        -0.00055
C          7.35075        20.90954         0.28685
C          8.64564        22.98396         0.86047
C          7.51184        22.09099         0.96552
C          8.54477        24.39606         1.06072
C          7.27588        25.16275         1.05871
C          8.60182        27.33228         1.60020
C          7.29529        26.61239         1.44485
C          8.65693        28.82177         1.67032
C          7.50967        29.56856         1.63678
C         11.21378         3.85396         1.20342
C          9.95161         4.46676         1.21164
C         11.06443         6.72210         1.05270
C          9.89644         5.91014         1.23334
C         11.02516         8.08233         0.56003
C          9.82248         8.72831         0.19904
C         11.08792        10.63170        -0.83914
C          9.80625         9.83275        -0.82746
C         11.02336        11.90536        -1.60058
C          9.70173        12.59819        -1.83829
C         10.95779        14.80517        -1.56589
C          9.73817        14.08917        -2.25380
C         10.91551        16.30899        -1.78791
C          9.73699        16.99536        -1.81406
C         11.01701        19.11093        -1.17129
C          9.73566        18.46265        -1.55310
C         11.00813        20.45550        -0.66302
C          9.83240        21.05455        -0.16049
C         11.05073        23.14677         0.25654
C          9.83949        22.38860         0.31411
C         11.02146        24.51701         0.67959
C          9.78706        25.13625         0.98243
C         11.12843        27.34150         1.26560
C          9.79923        26.60672         1.09861
C         11.13319        28.71542         1.82715
C          9.95422        29.42445         1.89849
C         13.66774         4.02362         1.25115
C         12.39510         4.63689         1.22867
C         13.53053         6.83728         1.14142
C         12.32908         6.07015         1.13423
C         13.46588         8.22606         0.77056
C         12.27257         8.77119         0.29949
C         13.55422        10.72093        -0.65828
C         12.26465        10.07133        -0.39319
C         13.59607        11.96250        -1.49344
C         12.30031        12.66763        -1.82915
C         13.49165        14.83412        -1.82321
C         12.29733        14.14693        -1.88014
C         13.51235        16.32304        -1.92949
C         12.20049        17.05984        -1.88962
C         13.45948        19.18348        -1.36220
C         12.21505        18.47330        -1.44921
C         13.43524        20.55449        -1.06405
C         12.23499        21.18962        -0.64905
C         13.52336        23.20568         0.00266
C         12.24694        22.53575        -0.18341
C         13.53617        24.49882         0.63655
C         12.29310        25.20355         0.86199
C         13.55591        27.05487         1.99518
C         12.32372        26.52404         1.31479
C         13.58246        28.56809         2.13845
C         12.41328        29.29821         2.13863
C         16.09672         3.99337         1.26850
C         14.85440         4.75895         1.38314
C         15.96066         7.03887         1.50703
C         14.78012         6.20181         1.42407
C         15.97942         8.40034         1.06530
C         14.65973         9.13428         0.94265
C         15.96608        11.03285        -0.14059
C         14.69519        10.26151        -0.06249
C         16.07765        11.93326        -1.37043
C         14.81666        12.78871        -1.43520
C         16.00546        14.94078        -1.45047
C         14.76339        14.14340        -1.64775
C         16.00661        16.41417        -1.63778
C         14.76089        17.09351        -1.66034
C         15.95301        19.26291        -1.47254
C         14.72052        18.49425        -1.53554
C         15.92421        20.64953        -1.38680
C         14.63194        21.41690        -1.34633
C         16.03250        23.11040         0.06609
C         14.70207        22.61172        -0.42863
C         15.99364        24.57155         0.43877
C         14.78911        25.16146         0.80689
C         16.08024        27.03109         1.92827
C         14.80177        26.62091         1.19820
C         16.06839        28.53612         2.12247
C         14.86591        29.20138         2.28051
C         18.63798         3.96427         1.65836
C         17.26454         4.37135         1.87015
C         18.43473         7.07699         1.67003
C         17.17396         6.52173         1.98048
C         18.44886         8.43430         1.22900
C         17.19075         9.09152         0.99095
C         18.51864        11.09305         0.11325
C         17.21285        10.47610         0.46049
C         18.58221        12.21483        -0.67171
C         17.42254        12.70903        -1.53764
C         18.56993        14.93056        -1.67099
C         17.29950        14.21098        -1.33209
C         18.51719        16.44528        -1.76678
C         17.21711        17.14371        -1.61403
C         18.45699        19.28941        -1.51507
C         17.21920        18.55787        -1.54949
C         18.45001        20.71452        -1.50256
C         17.15282        21.48160        -1.63948
C         18.36637        23.47420        -0.76572
C         17.20592        22.75468        -0.81463
C         18.46622        24.71087        -0.00123
C         17.24871        25.29313         0.55749
C         18.60666        27.13124         1.60967
C         17.29725        26.51206         1.20729
C         18.51795        28.62956         1.79655
C         17.31687        29.23397         2.11154
C         19.68120         4.84535         1.75347
C         20.84699         6.99533         1.56752
C         19.64262         6.30219         1.75044
C         20.86986         8.37625         1.31503
C         19.69856         9.10616         1.10535
C         20.99679        11.19508         0.44219
C         19.69913        10.62202         0.93435
C         21.03390        12.31320        -0.31614
C         19.82932        12.95106        -0.79952
C         21.01570        15.06059        -1.39223
C         19.84260        14.26874        -1.30610
C         20.97599        16.44474        -1.52484
C         19.77323        17.18254        -1.56953
C         20.90915        19.38345        -1.38186
C         19.72165        18.60784        -1.47830
C         20.87080        20.76186        -1.38237
C         19.63625        21.45013        -1.46149
C         20.84725        23.65880        -1.19129
C         19.56263        22.97585        -1.57256
C         20.88523        24.77667        -0.44419
C         19.68812        25.37752         0.12559
C         20.88323        27.48764         0.68666
C         19.77199        26.67411         0.76701
C         20.87597        28.82030         1.20056
C         19.72666        29.38864         1.69369
O          5.65580        10.74079         0.94613
O         16.65182        14.62808        -0.10884
O          5.63189        28.13999         2.51947
O         18.55851        15.57623        -2.96832
O          1.33607         5.66950        -0.02879
O          1.75422        25.13693         1.23707
O          5.49105        26.50033        -0.87327
O          4.38350         5.71081        -0.59490
O         13.05157        11.94166        -2.85381
O          8.96938        19.40115        -2.42389
O          8.39216        15.38519        -0.55660
O          3.02224        16.22868        -0.05830
O         12.87750        16.81470        -3.17402
O         16.37442        11.49978         1.19371
O          3.75279        24.28030        -1.65866
O          8.57310         7.75533         2.01120
O         10.42234        27.27079        -0.03510
O          2.59200        11.76256        -2.26713
O          2.53149        14.38727        -2.97566
O          5.85684        15.62532        -3.06383
O          7.95689        26.72619         2.75699
O         17.14131         5.40928         2.82243
O         10.29625        11.74255        -2.89954
O         15.97095        11.01794        -2.43879
O          6.41297        22.54934         1.70371
O         16.27908        22.38333         1.34152
H         15.55523        22.62427         1.95931
O         18.86181        26.58900         2.98003
H         19.18117        25.66700         2.86828
O          9.72300         9.21823        -2.14956
H          9.96990         9.92421        -2.80102
O          5.63596        30.31222        -0.45959
H          4.92048        30.74536        -0.96787
O          6.30395        21.29297        -1.71755
H          6.97672        20.81067        -2.24625
O          1.50923        12.38391         1.10826
H          1.39472        13.34358         1.27472
O         16.14050        26.41322         3.25062
H         17.07762        26.51952         3.56019
O          0.53665        10.17320        -1.66418
H          1.23033        10.48699        -2.29378
O          1.16628        18.92799         1.20319
H          2.02676        19.31443         1.47665
O         17.06573        21.89501        -3.05776
H         16.95251        21.08391        -3.59725
O         19.36899        23.29834        -2.97406
H         18.49748        22.91124        -3.24923
O         14.39056        21.96780        -2.70126
H         14.10341        21.22609        -3.27552
O         19.49765        11.16980         2.28372
H         18.53180        11.19739         2.45729
O          4.47840        20.59412         1.40228
H          5.12779        21.03614         1.99709
O          0.89194        16.47068        -2.97700
H          1.44081        15.74125        -3.36373
O          7.11630         9.40592        -2.12534
H          7.98579         9.02100        -2.40866
O         13.52328        26.46908         3.31773
H         14.43412        26.51802         3.69904
O         14.46797         9.78180         2.24869
H         15.10728        10.53650         2.27888
O         14.80639        27.37685        -0.03900
H         14.05210        27.07610        -0.58854
O          8.87635        19.36281         1.21376
H          8.91695        19.97328         1.98054
O         17.85102        12.52757        -2.89562
H         17.26097        11.79048        -3.23689
O          9.88786        14.17870        -3.67221
H         10.33679        13.35474        -3.97712
O         10.84309        14.58827        -0.13297
H          9.96095        14.94386         0.15004
O          3.81986        20.91229        -2.19603
H          4.11077        21.84760        -2.26490
O          8.60533        11.04527         0.84867
H          7.69993        11.26498         1.16497
H          1.50163         2.79067         2.71225
H         -0.50531         4.15781         3.16899
H         -0.63782         6.51502         2.50818
H         -0.80771         8.31768         1.68788
H         -1.01456        10.55024         0.74884
H         -1.17863        12.33709        -0.20898
H         -1.15825        14.72992        -0.68639
H         -1.26247        16.66332        -1.26508
H         -1.18353        18.86649        -0.35000
H         -1.14942        20.84809        -0.33156
H         -1.11566        23.29587        -0.28114
H         -1.02871        25.37437        -0.59002
H         -0.85561        27.79909        -0.39490
H          0.43681        29.85767         0.17891
H          3.84990         2.65822         2.09979
H          2.60153        30.97960         0.64090
H          6.28301         2.56331         1.63839
H          4.91812        30.75097         1.45895
H          8.77817         2.63451         1.35037
H          7.58310        30.66637         1.67295
H         11.29383         2.75681         1.21061
H          9.98011        30.48246         2.20103
H         13.72527         2.92606         1.20208
H         12.44966        30.37951         2.34656
H         16.07212         3.09453         0.63445
H         14.88244        30.29437         2.42393
H         18.85277         2.91220         1.41529
H         17.30389        30.32000         2.29940
H         20.69353         4.42483         1.63330
H         21.79885         6.44657         1.61842
H         21.84869         8.86909         1.24154
H         21.93997        10.76453         0.80660
H         22.00847        12.75084        -0.57682
H         22.00070        14.58558        -1.28218
H         21.93512        16.98002        -1.50970
H         21.88527        18.88385        -1.33007
H         21.81460        21.32011        -1.32695
H         21.77681        23.29214        -1.64986
H         21.85472        25.25812        -0.25367
H         21.78298        27.15517         0.15089
H         21.78981        29.42333         1.10809
H         19.70525        30.45546         1.96069
