         621
 CSIRO Nanostructure Databank - Neutral Graphene Oxide Data Set
C          6.44902        31.61470        -1.98654
C          6.35616        32.97935        -1.95711
C          8.71400        27.36365        -0.81770
C          8.03842        28.51111        -0.52611
C          7.36853        29.46187        -1.38640
C          8.04614        31.55709        -0.04487
C          7.28465        30.81619        -1.11337
C          8.03415        33.06031        -0.12391
C          7.15891        33.78718        -1.08015
C          7.99331        35.96361        -0.26217
C          7.12158        35.16953        -1.09646
C          8.12852        37.34425        -0.44044
C         10.72719        23.03768         0.68160
C         10.49542        24.49930         0.99905
C          9.73339        25.32413        -0.00393
C         10.50034        27.45073         1.03191
C          9.57975        26.67892         0.16376
C         10.49285        28.84714         1.08351
C          9.30140        29.62318         0.86362
C         10.45792        31.77427         0.98493
C          9.27090        30.96392         0.58548
C         10.41924        33.28632         0.99785
C          9.13075        33.86204         0.47579
C         10.71865        36.31791         0.86119
C          8.86339        35.19308         0.60825
C         10.57515        37.77712         0.52193
C          9.22286        38.21244        -0.07518
C         10.40797        40.37015        -0.32983
C          9.18083        39.56977        -0.35032
C         10.53485        41.72897        -0.16902
C         13.31436        18.85467         0.40581
C         13.31197        20.24898         0.54824
C         11.97164        20.90090         0.82013
C         13.17821        23.20097         0.54157
C         11.92240        22.41127         0.65507
C         13.10750        24.64655         0.98081
C         11.78869        25.24822         1.39403
C         12.99148        27.58699         1.88309
C         11.73220        26.74658         1.52963
C         13.06315        28.91913         1.16859
C         11.75847        29.61779         0.95929
C         12.94431        31.80842         0.87995
C         11.75714        31.08687         0.93877
C         12.91689        33.26039         0.69033
C         11.73502        34.00416         0.77627
C         13.04957        36.17872         0.33410
C         11.75116        35.46010         0.54896
C         12.92266        37.55762        -0.23783
C         11.70303        38.24641        -0.38455
C         12.66121        40.39526        -1.29077
C         11.62223        39.63373        -0.68573
C         12.96992        41.74107        -0.98788
C         11.92040        42.34426         0.01665
C         12.60350        44.78899        -0.34530
C         11.84730        43.84820         0.26929
C         12.91464        46.18023        -0.04092
C         15.97527        14.71172        -0.52070
C         15.77186        16.10779        -0.52176
C         14.56019        16.73971        -0.12875
C         15.64532        18.93287        -0.29646
C         14.48054        18.14227         0.00390
C         15.73355        20.28190         0.20148
C         14.52836        20.97828         0.55673
C         15.72199        23.38400         0.68716
C         14.51570        22.48616         0.49603
C         15.63763        24.91625         0.69545
C         14.35846        25.38873         1.36560
C         15.56199        27.63269         1.64503
C         14.31202        26.82830         1.75960
C         15.49616        29.02378         1.63739
C         14.27207        29.74064         1.36360
C         15.45063        31.85753         0.90280
C         14.21954        31.11172         1.06080
C         15.48507        33.14180         0.41260
C         14.18679        33.87251         0.08895
C         15.65188        35.91198        -0.16705
C         14.33893        35.37423         0.31021
C         15.89082        37.31588        -0.16005
C         14.10255        38.33250        -0.34314
C         15.63460        40.10782        -1.11585
C         14.41965        39.35369        -1.21747
C         15.56752        41.52823        -1.20052
C         14.30320        42.25199        -1.17434
C         15.55560        44.36311        -0.64038
C         14.44233        43.67747        -1.09256
C         15.39243        45.65519         0.18115
C         14.23172        46.63886        -0.06851
C         15.69834        48.66645         0.17493
C         14.44421        48.03904         0.09817
C         15.84305        50.06293         0.24808
C         18.70554        10.79615        -1.51990
C         18.62205        12.17880        -1.29304
C         17.39012        12.74645        -0.90223
C         18.37179        14.97698        -1.18639
C         17.23343        14.14103        -0.83898
C         18.06637        16.31752        -1.43706
C         16.85076        16.92461        -1.02764
C         18.63217        19.53951        -0.67729
C         16.70943        18.32626        -0.96864
C         18.35091        20.57021         0.25655
C         16.99566        20.79707         0.63104
C         18.18005        23.42899         1.21389
C         16.96480        22.85647         1.28307
C         18.21728        24.90855         0.88310
C         16.88960        25.57943         1.24664
C         18.12127        27.70759         1.43492
C         16.82911        26.91639         1.55242
C         18.03571        29.10550         2.00555
C         16.72316        29.82176         1.81919
C         18.04690        31.73744         0.81331
C         16.71821        31.24515         1.35929
C         18.00801        33.16971         0.35864
C         16.77360        33.76618         0.10577
C         18.01525        35.70661        -0.93699
C         16.76778        35.11850        -0.39436
C         18.05955        37.21187        -1.27361
C         16.88918        37.97647        -0.84558
C         18.08250        40.09946        -1.15249
C         16.86511        39.40920        -0.96923
C         18.04872        41.52008        -1.10165
C         16.79844        42.23515        -1.04494
C         18.02294        44.22940        -0.31626
C         16.80262        43.62626        -0.63486
C         18.06139        45.56709         0.28749
C         16.76872        46.34540         0.40161
C         18.24748        48.51652         0.18916
C         16.91468        47.82241         0.12621
C         18.30805        49.99967         0.14598
C         17.08944        50.75588         0.18153
C         18.09326        53.02730        -0.06467
C         17.07606        52.18861         0.38610
C         18.51259        54.31634         0.35432
C         21.22183         6.58370        -2.24627
C         21.15011         8.04477        -2.36893
C         19.93948         8.77260        -2.02842
C         21.13317        10.97081        -1.92854
C         19.92131        10.16132        -1.87453
C         21.05107        12.35896        -1.68446
C         19.80596        13.00682        -1.41550
C         20.93212        15.20470        -1.11588
C         19.71003        14.42469        -1.30246
C         20.96732        16.62046        -0.78754
C         19.95071        17.51112        -1.16500
C         20.89673        19.32001         0.20867
C         19.83675        18.80874        -0.60425
C         20.75220        20.63807         0.78119
C         19.49402        21.24668         0.86432
C         20.68007        23.38405         1.51152
C         19.39252        22.58847         1.62587
C         20.61259        24.82331         1.64402
C         19.43749        25.52928         1.51889
C         20.61756        27.74200         2.15669
C         19.35012        26.95217         1.91160
C         20.61110        29.21579         2.00652
C         19.29919        29.90624         2.08929
C         20.50741        32.07733         1.42260
C         19.22493        31.36548         1.71285
C         20.47410        33.23976         0.50595
C         19.28051        33.80784         0.05725
C         20.49094        35.79166        -0.87743
C         19.30802        35.08352        -0.63435
C         20.53066        37.21721        -1.14966
C         19.33136        37.94269        -1.25262
C         20.54463        40.07870        -1.34381
C         19.32411        39.37212        -1.24193
C         20.51952        41.52221        -1.28016
C         19.29350        42.20276        -1.09035
C         20.60860        44.33522        -0.65190
C         19.27422        43.64748        -0.84105
C         20.67549        45.60295         0.09599
C         19.41008        46.25229         0.46346
C         20.80493        48.39203         0.62873
C         19.47683        47.75695         0.61158
C         20.76985        49.86061         0.76474
C         19.60997        50.57343         0.17151
C         21.05921        52.62047        -0.05736
C         19.85630        51.87651        -0.25973
C         21.00360        54.08339        -0.37441
C         19.79201        54.87054         0.09056
C         21.19509        56.93999         0.33292
C         19.97767        56.21807         0.44524
C         21.30105        58.24103         0.81222
C         23.88661         4.00222        -2.82049
C         22.67630         4.54979        -2.37905
C         23.58647         6.76544        -1.76340
C         22.45450         5.95193        -2.12442
C         23.69553         8.14056        -1.95417
C         22.46372         8.86886        -2.33171
C         23.60796        10.96930        -1.75163
C         22.40495        10.30970        -2.01907
C         23.61368        12.43787        -1.66572
C         22.27324        13.17856        -1.68093
C         23.35961        15.18021        -0.61503
C         22.18756        14.55081        -1.12210
C         23.29461        16.43611         0.00595
C         22.10380        17.19758        -0.11212
C         23.23828        19.16556         0.96748
C         22.07023        18.55885         0.34412
C         23.16393        20.57429         1.35514
C         21.96412        21.28494         1.26602
C         23.14682        23.43143         1.75690
C         21.90098        22.71406         1.51270
C         23.12429        24.79369         1.99181
C         21.92068        25.59034         1.58461
C         23.07034        27.75532         2.07558
C         21.90820        27.03693         2.03139
C         23.07326        29.21215         1.99522
C         21.79227        29.91779         1.90019
C         22.97199        31.97282         1.25208
C         21.79826        31.34505         1.56173
C         22.99846        33.44631         0.87522
C         21.75790        33.78202         0.06678
C         23.03080        35.87544        -0.70788
C         21.77362        35.11125        -0.68686
C         23.02542        37.24514        -1.04189
C         21.77322        37.93623        -1.18830
C         23.02932        40.04016        -1.50631
C         21.78436        39.34841        -1.35764
C         22.92977        41.49117        -1.92854
C         21.75973        42.23071        -1.31794
C         23.08497        44.19599        -0.59809
C         21.85393        43.57051        -0.88360
C         23.14261        45.43214         0.17311
C         21.88897        46.21809         0.34439
C         23.27380        48.25868         1.01760
C         21.95886        47.62868         0.67465
C         23.30455        49.77515         1.18537
C         22.07626        50.60093         0.92560
C         23.54339        52.54158         0.16990
C         22.20279        51.96186         0.36744
C         23.62433        54.00983        -0.27430
C         22.33519        54.78819        -0.45770
C         23.71697        56.96071        -0.12205
C         22.38540        56.27817        -0.25145
C         23.75931        58.30911         0.49344
C         22.55294        58.93741         0.90396
C         23.84489        60.87830         1.60771
C         22.62093        60.23553         1.46552
C         25.14070         4.62441        -2.96904
C         26.32828         6.87237        -2.58025
C         25.47916         5.83704        -2.29613
C         26.28439         8.12715        -1.71898
C         24.92175         8.85414        -1.78144
C         26.05739        11.01810        -1.37976
C         24.86976        10.26630        -1.67966
C         25.96085        12.39613        -0.96462
C         24.78694        13.10404        -1.08017
C         25.85841        15.20358        -0.14499
C         24.72303        14.61312        -0.94904
C         25.78491        16.39267         0.52754
C         24.41148        16.93626         0.90333
C         25.48045        18.97591         2.02458
C         24.39312        18.42926         1.13146
C         25.55257        20.49617         1.98513
C         24.39509        21.23741         1.77819
C         25.58331        23.40154         2.00916
C         24.38953        22.69139         1.88523
C         25.63613        24.83573         2.10579
C         24.35805        25.51561         2.33698
C         25.62745        27.72444         2.02553
C         24.36412        27.05682         2.30098
C         25.56320        29.15980         1.56572
C         24.27013        29.88772         1.90592
C         25.51890        32.06307         1.31881
C         24.24978        31.34077         1.63453
C         25.46724        33.12622         0.26086
C         24.24655        33.90045         0.12716
C         25.47882        35.83393        -0.87823
C         24.25374        35.17187        -0.50746
C         25.48337        37.19926        -1.17922
C         24.26273        37.94236        -1.20921
C         25.52092        40.03132        -1.76065
C         24.25478        39.35304        -1.48529
C         25.48703        41.48232        -2.06047
C         24.23192        42.26672        -1.82031
C         25.65443        44.23796        -0.88465
C         24.32213        43.61925        -1.14864
C         25.72806        45.54640        -0.27833
C         24.53880        46.14354         0.34896
C         25.79913        48.22951         0.79608
C         24.56196        47.57474         0.70138
C         25.88117        49.65267         1.25191
C         24.62347        50.50234         1.23830
C         25.98482        52.55190         0.67681
C         24.72694        51.89368         0.75079
C         26.04466        53.97789         0.37976
C         24.88848        54.72535         0.05238
C         26.18717        56.81423         0.16362
C         24.94867        56.13882        -0.00489
C         26.24369        58.32583         0.08316
C         24.98995        58.97136         0.62957
C         25.02843        60.25604         1.18795
C         27.41690         9.06311        -2.17102
C         28.50816        11.10337        -1.19691
C         27.34018        10.41608        -1.51200
C         28.48913        12.40941        -0.63907
C         27.15381        13.01634        -0.27918
C         28.39615        15.20538         0.14068
C         27.15719        14.53026        -0.34775
C         28.25084        16.46051         0.90254
C         26.98062        17.00186         1.10966
C         28.15276        19.01469         2.15112
C         26.84663        18.24759         1.90459
C         28.10422        20.46725         2.19820
C         26.82029        21.16195         2.32452
C         28.08000        23.37532         1.80171
C         26.84150        22.67946         2.25343
C         28.09564        24.87732         1.75705
C         26.82602        25.57032         2.08148
C         28.11397        27.68390         1.90047
C         26.83283        27.00989         2.04143
C         28.10546        29.16226         1.94454
C         26.82173        29.92596         1.93745
C         28.09269        32.04590         1.10068
C         26.84005        31.39205         1.57255
C         28.05690        33.26305         0.26362
C         26.79200        33.68943        -0.32258
C         27.99716        35.62983        -1.49458
C         26.71339        35.01629        -1.03405
C         28.05517        37.15187        -1.56429
C         26.77355        37.92564        -1.35531
C         28.00729        40.07811        -1.89606
C         26.73821        39.36830        -1.71997
C         28.02351        41.46352        -1.91978
C         26.77654        42.25517        -1.98394
C         28.04658        44.38903        -1.49185
C         26.77719        43.63964        -1.44220
C         28.16593        45.65012        -0.73717
C         26.96107        46.25927        -0.19826
C         28.33444        48.18311         0.61414
C         27.00498        47.55457         0.39925
C         28.44356        49.65291         0.90272
C         27.17522        50.40292         1.17500
C         28.48869        52.55354         1.26347
C         27.17167        51.86037         1.00967
C         28.47411        53.98709         0.85368
C         27.30930        54.66353         0.50621
C         27.34787        56.08475         0.34487
C         29.64896        13.07133        -0.26837
C         30.77734        15.02167         0.71980
C         29.63822        14.40157         0.26605
C         30.75817        16.37957         1.20709
C         29.47512        17.06550         1.40100
C         30.68589        19.03861         2.34245
C         29.45015        18.35851         1.89397
C         30.68388        20.53840         2.47016
C         29.35034        21.23358         2.36447
C         30.66068        23.41857         1.85988
C         29.37922        22.64069         1.85318
C         30.61134        24.90225         1.92955
C         29.39813        25.58280         1.86815
C         30.61399        27.76666         1.94463
C         29.34697        27.02639         1.90340
C         30.62511        29.14910         1.79866
C         29.35640        29.82887         1.47950
C         30.61910        32.08566         1.10255
C         29.35479        31.24252         1.02163
C         30.55244        33.23573         0.13063
C         29.28576        33.83275        -0.16157
C         30.43099        35.21018        -1.76447
C         29.24929        34.89058        -1.12745
C         30.40915        37.25646        -2.47036
C         29.23912        37.90181        -2.08430
C         30.50288        39.97441        -2.23242
C         29.26912        39.33502        -2.02337
C         30.52621        41.44210        -2.43015
C         29.25409        42.20807        -2.24310
C         30.61925        44.26422        -1.55026
C         29.31615        43.68025        -1.93763
C         30.63661        45.59331        -1.06024
C         29.42113        46.24675        -0.65439
C         30.77555        48.34541        -0.23412
C         29.56494        47.52920         0.06043
C         30.72859        49.74638        -0.12823
C         29.59782        50.44378         0.38029
C         29.59209        51.81627         0.53286
C         31.95366        17.02471         1.43522
C         33.21251        19.18232         1.92239
C         32.01533        18.35226         2.04650
C         33.18173        20.57929         2.05704
C         31.93526        21.29678         2.20177
C         33.13645        23.44472         2.09354
C         31.92643        22.69520         2.14588
C         33.12524        24.87872         2.10241
C         31.86341        25.62563         2.07500
C         33.11823        27.78118         2.25358
C         31.85047        27.02313         2.09999
C         33.16942        29.24680         1.90835
C         31.86278        29.96361         1.72417
C         33.04869        31.80221         0.51999
C         31.86773        31.25136         0.99782
C         33.01711        33.07186        -0.18833
C         31.75991        33.73072        -0.41584
C         32.90352        35.58958        -1.67471
C         31.72299        34.85439        -1.30597
C         32.87703        36.96084        -2.17906
C         31.72288        37.79472        -2.35775
C         32.98178        39.92179        -2.28975
C         31.75620        39.24615        -2.31265
C         33.08104        41.39423        -2.23705
C         31.81766        42.19481        -2.30577
C         33.07897        44.15607        -1.40996
C         31.82075        43.55421        -1.72961
C         33.09459        45.52477        -1.05794
C         31.90444        46.25564        -0.89320
C         31.93039        47.65886        -0.61798
C         34.38443        21.33008         1.97136
C         35.60592        23.46417         2.04336
C         34.38180        22.73208         2.04214
C         35.59838        24.84356         2.09910
C         34.36239        25.55346         2.11376
C         35.63944        27.72116         1.74325
C         34.41368        27.02616         2.21975
C         35.58737        29.04735         1.24793
C         34.36557        29.80957         1.24536
C         35.49023        31.66325         0.07019
C         34.30433        31.07171         0.63580
C         35.41926        32.89456        -0.61658
C         34.18751        33.62052        -0.76963
C         35.38548        35.60268        -1.68475
C         34.15004        34.92913        -1.40892
C         35.42205        36.95607        -2.01177
C         34.17268        37.62363        -2.37410
C         35.49620        39.86958        -2.05630
C         34.23197        39.20551        -2.45025
C         35.49231        41.22913        -1.68571
C         34.31907        42.02482        -1.72832
C         34.29046        43.38558        -1.42293
C         36.90229        25.59261         2.27403
C         38.03371        27.61985         1.31739
C         36.85741        27.00475         1.73816
C         38.02822        28.95095         0.83561
C         36.78331        29.66009         0.75443
C         37.96698        31.56968        -0.23867
C         36.74397        30.96147         0.19022
C         37.94748        32.83120        -0.86378
C         36.65156        33.41348        -1.22507
C         37.92936        35.58042        -1.76891
C         36.64909        34.85256        -1.73466
C         37.89385        36.97674        -1.90960
C         36.67268        37.68285        -2.04716
C         36.67438        39.10057        -2.02448
C         39.23317        29.58966         0.44444
C         40.43157        31.56252        -0.45605
C         39.22294        30.88857        -0.06279
C         40.40052        32.82476        -0.97920
C         39.15343        33.50918        -1.20008
C         39.13044        34.85720        -1.62366
O         13.07922        24.29238        -0.44209
O         21.58392        54.43718        -1.66208
O         22.99943        56.94605        -1.40705
O         15.37643        22.88068        -0.64528
O         27.47012        29.64802         3.19359
O         19.79448        27.20201         3.26874
O          9.61465        35.87169         1.56589
O         21.13647        50.46458         2.05078
O         24.16077        43.46252        -2.63826
O         21.91923        33.81317        -1.37397
O         14.45421        25.74213         2.76402
O         27.90849        24.05799         0.53045
O         26.04640        32.61560        -0.99026
O          8.09066        28.92508         0.82201
O         24.63919         6.07775        -1.15729
O         32.64859        42.03767        -3.50316
O         16.84975        21.56113         1.81079
O         24.88251        32.31645         2.60832
O         28.56988        44.50161        -2.87989
O         12.54105        28.99354        -0.18309
O         11.61342        25.82355         2.70968
O         15.06347        38.09197         0.65219
O         23.17467        48.89756         2.33042
O         18.59407        29.42914         3.29620
O         26.84585        22.04181         3.55703
O         10.82988        38.51772         1.69375
O         29.74382        41.88272        -3.59195
O         23.78483        52.95398        -1.24468
O         30.32248        35.94842        -2.94158
O         19.85369        44.49674        -1.91941
O         33.85697        27.50871         3.49759
O         29.32070        30.19889         0.01618
O         25.26836        50.11390         2.49596
O         36.55631        33.72139        -2.66103
O         18.91156        52.47221        -1.08520
O         27.63395        32.21499         2.48722
O         13.87932        35.96389         1.54737
O         13.49229        39.71860        -2.21317
O         21.85449         8.51797        -3.59872
O         17.35510        45.75479         1.58650
O         30.10821        22.81898         0.60433
O         24.32351        26.30628         3.56566
O         27.14216        34.95571        -2.45726
O          7.22097        32.32593         0.88846
O         32.62287        30.06855         2.99961
O         17.88512        36.21042        -2.31421
O         23.10127        13.09752        -2.89819
O         27.45084        18.23224         3.23359
O         13.31243        44.38115        -1.49540
O         16.62411        30.92775         2.77451
O         31.40531        18.36959         3.41267
O         19.40934        46.89147         1.77892
O         29.23433        47.40953         1.49195
O         19.72769        32.30593         2.67196
O         28.00807        15.21896        -1.30066
O         30.00192        21.03748         3.67978
O         17.71007        48.01509        -1.10325
O         17.66147        19.15963        -1.60009
O         28.09421        49.96503         2.28199
O         10.28073        32.54486         2.24554
O         26.12959        41.95001        -3.28093
O         23.93108        45.30108         1.40273
O         27.71071        37.68883        -0.22995
O         19.00605        17.11783        -2.11349
O         34.29940        38.36243        -3.62615
O         26.96183        12.74014         1.14947
H         26.98798        11.76770         1.27452
O         22.90266        34.21070         2.10740
H         23.56757        33.82875         2.72999
O         12.41978        41.81714         1.28843
H         12.02692        40.93008         1.45181
O         18.36829        25.11682        -0.56321
H         17.46185        25.04961        -0.96084
O         14.00951        33.76178        -1.36506
H         13.93850        32.80995        -1.58998
O         30.65672        32.67139         2.44036
H         30.94545        31.98282         3.07776
O         24.11219        16.34028         2.21356
H         24.38157        16.99607         2.90823
O         27.41107        58.82801         0.73348
H         27.34268        58.63208         1.69010
O         26.54269         7.80023        -0.33445
H         25.90555         7.08855        -0.09057
O         24.95970        15.09446        -2.31846
H         24.34448        14.58775        -2.90488
O         25.59980        29.16063         0.09849
H         24.83785        28.64285        -0.23806
O         14.98221        45.12285         1.47366
H         15.80622        44.89750         1.97090
O         19.25114        22.25729         3.03226
H         18.40259        21.76960         3.13104
O          9.63304        24.41259         2.16699
H          9.94653        25.09564         2.80840
O         15.58745        25.36725        -0.68614
H         14.93631        24.77957        -1.14809
O         22.11174        25.75339         0.10947
H         21.90941        24.89130        -0.31565
O         37.99093        24.86377         1.70341
H         37.84947        24.80225         0.73680
O         28.75976        52.53279         2.70338
H         28.66339        51.59003         2.98882
O         12.85734        27.96992         3.26614
H         12.83981        27.14039         3.79451
O         18.30225        27.91011         0.00328
H         18.37229        27.01752        -0.42421
O         24.99584        18.66612         3.38024
H         25.79167        18.70464         3.96749
O         18.30222        30.94114        -0.39298
H         17.79428        31.32187        -1.14005
O         22.63090        41.43128        -3.35814
H         22.87510        42.30752        -3.73474
O         27.35691         9.24768        -3.59572
H         26.56508         9.78563        -3.80495
O         10.95115        20.28075         0.03265
H         11.13887        20.45878        -0.91147
H          5.83224        31.06353        -2.71288
H          5.66652        33.48794        -2.64701
H          8.64256        26.91827        -1.82104
H          6.88551        29.08871        -2.30413
H          6.45992        35.68268        -1.81152
H          7.37356        37.81128        -1.09840
H          9.82403        22.40951         0.73994
H          9.13336        24.81184        -0.77057
H          8.23804        40.05594        -0.64864
H          9.65446        42.34696         0.06227
H         12.36683        18.31136         0.53287
H         11.70756        20.68171         1.89366
H         11.29701        44.12112         1.18207
H         12.10285        46.90407         0.14259
H         15.14706        14.04169        -0.24980
H         13.68986        16.12089         0.13153
H         13.55092        48.68429         0.10314
H         14.92742        50.67052         0.31060
H         17.79598        10.18522        -1.42583
H         16.52964        12.09001        -0.70969
H         16.24296        52.61063         0.96746
H         17.80518        54.93683         0.92586
H         20.29622         5.99552        -2.34110
H         19.02821         8.19967        -1.80093
H         19.11061        56.76085         0.85289
H         20.40097        58.73652         1.20659
H         23.81646         2.97615        -3.21780
H         21.78195         3.91282        -2.45880
H         23.88604        61.88688         2.04187
H         21.69413        60.73062         1.78841
H         25.89347         4.13565        -3.60433
H         26.97419         6.85837        -3.46900
H         26.33599        58.61256        -1.00114
H         25.99319        60.77434         1.27878
H         28.39773         8.57977        -1.94519
H         29.48020        10.62304        -1.38658
H         29.40733        54.55857         0.96981
H         28.30882        56.61040         0.44272
H         30.61995        12.56649        -0.39113
H         31.73615        14.48200         0.72026
H         31.62676        50.32688        -0.38754
H         30.43456        52.39917         0.13067
H         32.89704        16.53017         1.15880
H         34.16697        18.69149         1.67994
H         34.05929        46.02466        -0.88696
H         32.87909        48.20570        -0.72426
H         35.33965        20.79693         1.85889
H         36.56348        22.92366         2.04522
H         36.43758        41.69152        -1.36326
H         35.22495        43.88817        -1.13127
H         37.10807        25.65191         3.37943
H         38.97891        27.05955         1.36027
H         38.83778        37.54185        -1.91111
H         37.63401        39.61397        -1.86080
H         40.18512        29.04820         0.54645
H         41.39066        31.04356        -0.31480
H         41.33520        33.33557        -1.25222
H         40.08643        35.38660        -1.75239
