         252
 CSIRO Nanostructure Databank - Neutral Graphene Oxide Data Set
C         30.40581        31.72433         0.73041
C         30.51249        32.82166         0.12586
C         30.52406        35.67204        -1.21138
C         30.44427        36.81998        -1.71149
C         30.97476        41.20754        -2.03728
C         31.15105        42.34877        -1.40850
C         32.96122        29.43969         2.21449
C         31.81228        29.95665         2.09921
C         32.52486        32.17349         1.64106
C         31.45848        31.21848         1.54466
C         32.71476        33.30783         0.80393
C         31.57773        33.75080         0.04297
C         32.75333        35.87020        -0.49141
C         31.59000        35.02617        -0.56072
C         32.69328        37.21972        -0.98690
C         31.54654        37.71840        -1.64141
C         32.78307        40.29163        -0.65219
C         31.68673        40.09799        -1.60304
C         32.70758        41.44159         0.33253
C         31.70234        42.92707        -0.36729
C         32.83439        44.17618         1.44580
C         32.09543        43.96859         0.44183
C         35.41910        27.51426         1.14781
C         35.51732        28.89612         1.77694
C         34.30710        29.74883         2.02635
C         35.44378        31.88789         1.34961
C         34.48689        31.18268         2.04469
C         35.30852        33.34877         0.99866
C         33.98948        33.99247         0.62578
C         35.23300        35.87619        -0.46442
C         33.99111        35.24078        -0.03757
C         35.21673        37.29138        -0.94386
C         33.93881        38.05695        -1.05944
C         35.19708        40.09366        -0.18280
C         33.93099        39.49412        -0.61223
C         35.24813        41.37640         0.33987
C         34.01453        42.02173         0.83875
C         35.39508        44.07000         1.62912
C         34.09605        43.38329         1.53526
C         35.76770        45.21793         2.28679
C         37.74773        27.46156         0.33415
C         36.45214        26.95988         0.74027
C         37.78957        28.83867         0.51419
C         36.55585        29.61209         0.87379
C         37.92405        31.82812         0.86456
C         36.58563        31.10481         0.79593
C         37.84085        33.20403         0.24219
C         36.56960        33.97331         0.38877
C         37.66513        35.81819        -0.99331
C         36.44175        35.21814        -0.39037
C         37.70089        37.33267        -1.05489
C         36.46678        38.05830        -0.72191
C         37.72341        40.13896        -0.40570
C         36.45903        39.40624        -0.47596
C         37.74540        41.45297        -0.02597
C         36.49427        42.17079         0.26831
C         37.91805        44.22850         1.00801
C         36.57212        43.57497         0.84463
C         38.05566        45.53953         1.70230
C         36.86888        45.85435         2.38825
C         40.13519        24.61971        -0.21342
C         39.09020        25.31073        -0.05539
C         40.22332        27.33849        -0.04177
C         38.94178        26.70983         0.03768
C         40.27619        28.79655        -0.21418
C         38.95808        29.59626         0.06062
C         40.28061        31.65909         0.05838
C         39.08164        31.02480         0.32762
C         40.27470        33.10296        -0.11020
C         38.98504        33.78164        -0.22367
C         40.22693        35.88606        -0.79537
C         38.98510        35.05620        -1.01179
C         40.18208        37.31689        -0.94564
C         38.99636        38.03093        -0.96764
C         40.15105        40.19890        -0.89701
C         38.99205        39.47336        -0.75800
C         40.15053        41.69957        -0.73015
C         39.07521        42.08904         0.30265
C         40.35074        44.25544         0.65443
C         39.02770        43.58412         0.52885
C         40.26379        45.76246         0.56165
C         39.28126        46.23468         1.67088
C         40.78271        48.05873         2.60577
C         39.75920        47.35555         2.33684
C         42.73990        24.61180        -0.35378
C         41.42794        25.15710        -0.26179
C         42.69929        27.32526         0.08611
C         41.46160        26.61534        -0.09097
C         42.78237        28.76703         0.09421
C         41.54898        29.52361        -0.10804
C         42.77479        31.67441        -0.18128
C         41.51366        30.91341        -0.12134
C         42.71760        33.13749         0.26069
C         41.45357        33.81858        -0.24184
C         42.70922        35.88825        -0.88964
C         41.42464        35.22475        -0.54010
C         42.74953        37.37556        -0.88420
C         41.44776        38.09736        -0.87941
C         42.69093        40.26446        -1.21592
C         41.39377        39.51281        -1.41149
C         42.68953        41.62257        -0.87630
C         41.52817        42.24136        -0.37309
C         42.97663        44.27625         0.31394
C         41.62754        43.54648         0.29355
C         42.82477        45.79799         0.36478
C         41.61204        46.42699         0.50930
C         43.26638        48.33598         1.97110
C         41.86955        48.32268         1.74243
C         43.83414        25.19687        -0.26488
C         45.23356        27.24705         0.63782
C         43.96899        26.55221         0.28935
C         45.24644        28.79904         0.88665
C         43.99649        29.45590         0.30211
C         45.27581        31.70668         0.52979
C         44.06908        30.91279         0.07019
C         45.33834        33.16809         0.17556
C         44.03738        33.88603        -0.03096
C         45.31422        35.87731        -1.09378
C         44.00507        35.14720        -0.84542
C         45.20433        37.37766        -1.25847
C         44.01926        38.05230        -1.22812
C         45.11093        40.22812        -0.65326
C         44.01111        39.56218        -1.51234
C         45.16382        41.69336        -0.54563
C         43.98639        42.40137        -1.17203
C         45.24597        44.56724        -0.55811
C         43.89847        43.93828        -0.88617
C         45.20218        46.11641        -0.58194
C         44.06877        46.56591         0.31235
C         43.97136        47.69647         1.09090
C         47.68030        27.38857         0.35822
C         46.59687        26.79566         0.35232
C         47.84031        28.80686         0.77158
C         46.53564        29.50564         0.32918
C         47.85230        31.72563         0.45225
C         46.57557        30.99077         0.68214
C         47.83192        33.02613        -0.07475
C         46.62260        33.72336        -0.31596
C         47.93279        35.89265        -0.79293
C         46.61492        35.11376        -0.85929
C         47.85267        37.12932         0.07966
C         46.39488        38.29757        -1.46937
C         47.62534        40.19586        -0.06309
C         46.40125        39.46634        -0.49328
C         47.55768        41.56309         0.06775
C         46.33272        42.32887        -0.19933
C         47.48255        44.43049         0.49313
C         46.33137        43.80502        -0.09470
C         47.30563        45.82130         0.57497
C         46.50914        46.62148         0.03380
C         50.44442        29.08549         0.89809
C         49.08204        29.56831         1.04699
C         50.41543        31.78730         0.65689
C         49.10167        31.14781         1.10475
C         50.40276        32.99540         0.02410
C         49.14924        33.64564        -0.53793
C         50.30728        35.89199        -0.26414
C         49.15511        35.13743        -0.33210
C         50.24605        37.36587        -0.09937
C         48.94574        37.98129         0.12408
C         50.06873        40.19734         0.63848
C         48.76914        39.41388         0.61357
C         50.09116        41.56605         0.49477
C         48.83553        42.36175         0.17045
C         49.98160        44.35095         0.94465
C         48.63309        43.64216         1.03257
C         51.53866        29.63938         0.75572
C         52.91356        31.80671         0.49291
C         51.75806        31.08975         1.15317
C         52.76209        32.95564         0.05463
C         51.63560        33.79148        -0.19106
C         52.68119        36.10195        -0.23895
C         51.59463        35.16916        -0.25509
C         52.57667        37.29249         0.13152
C         51.40420        38.09660         0.20971
C         52.44306        40.29114         0.94519
C         51.29587        39.35269         1.04314
C         52.48326        41.52381         0.77693
C         51.33790        42.34583         0.63069
C         51.04876        43.70973         0.84661
O         44.17165        42.27794        -2.56325
O         37.45721        36.50905        -2.26181
O         34.67272        37.66311        -2.27119
O         44.49092        26.57481         1.67619
O         39.40915        29.24683        -1.28990
O         31.47253        38.91818        -2.27618
O         36.20124        34.18484         1.82082
O         39.12818        34.48301        -2.42922
O         43.65418        31.34672        -1.28050
O         41.53958        47.83391         0.39511
O         36.13660        30.31442        -0.35493
O         45.37306        39.44895         0.55599
O         41.12329        43.62762         1.73293
O         42.17869        37.92496         0.37152
O         48.26351        29.01501         2.12290
O         33.46478        31.93888         2.65164
O         44.77488        34.09462         1.21416
O         45.79433        31.39178         1.85300
O         47.10689        38.30817        -2.45434
O         49.03491        42.92233        -1.19607
O         43.22745        35.17446        -2.07240
O         36.26976        43.38246        -0.58301
O         33.97334        42.17382         2.33158
O         46.01709        35.21471        -2.20346
O         48.31901        39.28910         2.02057
H         48.08911        40.18519         2.35339
O         51.12378        38.94907         2.41373
H         50.16589        38.77263         2.56706
O         49.36561        41.79182        -2.05052
H         48.76832        41.92602        -2.82650
O         39.69618        35.49172        -3.28248
H         38.91019        36.05998        -3.49840
O         39.45052        41.50489         1.58194
H         40.17210        42.06419         1.96482
O         46.48972        29.46581        -1.10536
H         46.70884        28.55906        -1.41197
O         49.20833        33.44310        -1.98198
H         48.93637        34.28287        -2.42272
O         36.17561        28.74151         3.04003
H         35.56474        28.29838         3.66518
O         31.88892        41.07284         1.37283
H         32.18911        41.56166         2.17930
O         42.53789        33.07974         1.69744
H         43.37679        33.39517         2.11741
O         46.78750        37.25081         0.89498
H         46.93547        38.00359         1.52047
O         51.83642        31.19097         2.53652
H         52.62832        30.71672         2.86021
O         43.32062        44.53943        -2.04027
H         43.51565        43.87505        -2.76471
O         48.38514        43.25366         2.37504
H         48.14439        44.04567         2.90009
O         39.61861        46.02333        -0.70797
H         39.74750        46.97448        -0.91560
O         39.81131        42.27379        -2.02310
H         39.65224        43.23599        -1.91048
O         48.31909        36.23086        -2.14860
H         47.50440        36.21496        -2.71216
O         48.96241        31.49593         2.49881
H         48.34147        30.85080         2.91073
O         44.34632        39.70132        -2.89956
H         44.33199        40.68944        -3.08893
O         45.24411        28.97150         2.30481
H         44.74867        28.22006         2.70339
O         45.00272        46.61393        -1.87778
H         45.52930        46.09659        -2.51983
O         41.26689        39.39666        -2.85772
H         41.17119        40.30081        -3.22817
O         43.68161        43.83951         1.48665
H         43.03126        43.80050         2.22465
O         38.15266        32.02786         2.29365
H         37.58593        32.78347         2.57826
