         430
 CSIRO Nanostructure Databank - Neutral Graphene Oxide Data Set
C         28.02287        27.61591         1.34776
C         27.98469        29.07828         1.32234
C         26.74351        29.80812         1.04145
C         27.98653        31.86270         0.47533
C         26.76221        31.13061         0.73459
C         27.96293        33.25325         0.10568
C         26.76519        34.01075         0.17925
C         27.91210        36.00008        -0.62507
C         26.74210        35.34111        -0.18124
C         27.83716        37.38904        -1.13305
C         26.66791        38.22724        -0.83781
C         27.91762        40.32220        -1.15457
C         26.72897        39.59774        -0.89642
C         27.94195        41.74583        -1.05676
C         26.75588        42.52244        -1.11743
C         28.00373        44.57535        -0.75269
C         26.79760        43.90783        -1.02387
C         28.06938        46.02089        -0.70608
C         30.46159        27.60023         1.01160
C         29.21496        26.95144         1.31126
C         30.49282        28.96281         0.72105
C         29.30080        29.79650         0.96818
C         30.37736        31.79359        -0.07515
C         29.21151        31.17007         0.43597
C         30.38507        33.16579        -0.39719
C         29.16510        33.91246        -0.29791
C         30.38466        36.00493        -0.92512
C         29.13784        35.30240        -0.64419
C         30.39137        37.37011        -1.18909
C         29.14512        38.09935        -1.46100
C         30.43514        40.26634        -1.05429
C         29.18245        39.62583        -1.62220
C         30.41592        41.67003        -0.75854
C         29.19813        42.41446        -0.84071
C         30.41601        44.47851        -0.21848
C         29.21134        43.81919        -0.59700
C         30.30876        45.87779         0.35418
C         29.18136        46.65853        -0.27708
C         32.76231        24.66089         0.39055
C         31.65199        25.36505         0.68127
C         32.92436        27.48245         0.35679
C         31.75716        26.81569         1.06368
C         32.88351        28.88699         0.07102
C         31.66868        29.59141         0.18620
C         32.88008        31.69084        -0.66265
C         31.56996        30.96216        -0.32907
C         32.87151        33.15703        -0.65713
C         31.63178        33.86034        -0.67708
C         32.88143        35.96950        -0.89406
C         31.63214        35.26548        -0.84308
C         32.89973        37.37847        -1.00577
C         31.67294        38.11701        -1.47005
C         32.85522        40.22858        -0.70378
C         31.62867        39.56106        -1.01620
C         32.85724        41.62361        -0.41181
C         31.62813        42.34310        -0.43362
C         32.86018        44.41063         0.16097
C         31.62299        43.75730        -0.16316
C         32.93860        45.92101         0.20201
C         31.61827        46.63173         0.41359
C         32.93504        48.61875         0.98683
C         31.67089        47.94992         0.71452
C         35.28197        23.17114         0.45084
C         35.23118        24.56569         0.12129
C         34.06051        25.29986         0.23255
C         35.34197        27.42251        -0.14334
C         34.08366        26.74706         0.11467
C         35.35063        28.85119        -0.22168
C         34.11770        29.57332        -0.24512
C         35.36206        31.69145        -0.47737
C         34.13779        30.97119        -0.44101
C         35.35714        33.11773        -0.59240
C         34.11044        33.83754        -0.65881
C         35.35360        35.96655        -0.75112
C         34.11837        35.26141        -0.74781
C         35.34837        37.38544        -0.77214
C         34.10872        38.08737        -0.85737
C         35.31782        40.21591        -0.59284
C         34.09223        39.51820        -0.73291
C         35.31954        41.61365        -0.27633
C         34.09175        42.29910        -0.12616
C         35.29802        44.38867         0.56918
C         34.05862        43.70249         0.21622
C         35.32126        45.71552         0.94893
C         33.98906        46.39490         1.22064
C         35.31447        48.48473         1.86605
C         34.05236        47.90722         1.26132
C         35.36314        49.98520         1.88393
C         37.74062        23.16492         0.35489
C         36.46522        22.50485         0.56655
C         37.75544        24.49320        -0.03497
C         36.48410        25.20316        -0.42769
C         37.80258        27.38442        -0.28214
C         36.54599        26.70233        -0.23137
C         37.81396        28.82106        -0.30627
C         36.58776        29.54685        -0.32759
C         37.82882        31.68272        -0.48623
C         36.59707        30.97645        -0.41791
C         37.83009        33.11026        -0.57429
C         36.59155        33.82495        -0.62379
C         37.82794        35.96581        -0.75646
C         36.60020        35.25453        -0.70647
C         37.83705        37.39806        -0.82768
C         36.58014        38.11627        -0.78118
C         37.79376        40.31808        -0.97656
C         36.55197        39.51571        -0.72137
C         37.80189        41.65301        -0.27780
C         36.58181        42.26528        -0.00974
C         37.86908        44.35986         0.70183
C         36.54541        43.60035         0.59655
C         37.81739        45.81865         0.74282
C         36.56431        46.47197         1.03249
C         37.72386        48.68200         0.84476
C         36.54073        47.84685         1.25510
C         37.77600        50.05712         1.45745
C         36.51990        50.68377         1.75916
C         40.18035        20.36649         1.09312
C         38.99920        21.05202         0.85889
C         40.22777        23.15452         0.51194
C         38.98102        22.43747         0.58230
C         40.24913        24.49860         0.13912
C         39.03678        25.16656        -0.43423
C         40.27211        27.37267        -0.20820
C         39.03821        26.67357        -0.26933
C         40.28152        28.81298        -0.29358
C         39.05346        29.53028        -0.36156
C         40.30019        31.65727        -0.54228
C         39.06099        30.95725        -0.46307
C         40.30692        33.10985        -0.62904
C         39.06427        33.82332        -0.62700
C         40.30246        35.95501        -0.80152
C         39.06977        35.24688        -0.72519
C         40.30790        37.38517        -0.88718
C         39.05733        38.10714        -0.88458
C         40.27074        40.25320        -0.78071
C         39.07764        39.54471        -0.82320
C         40.29282        41.66157        -0.47439
C         39.06024        42.33403        -0.13089
C         40.31033        44.43184         0.26159
C         39.10026        43.69128         0.25478
C         40.29350        45.83207         0.53104
C         39.03606        46.53576         0.67675
C         40.24493        48.65691         0.97794
C         39.03266        47.94061         0.86761
C         40.23204        50.03330         1.31777
C         39.00769        50.72875         1.55993
C         40.22574        52.85641         1.78346
C         39.06752        52.14465         1.88778
C         42.64740        20.37820         1.38971
C         41.42945        21.04779         1.09244
C         42.69879        23.12351         0.85989
C         41.46214        22.44147         0.81291
C         42.67495        24.59041         0.70833
C         41.56136        25.18235        -0.12122
C         42.73962        27.39346         0.01483
C         41.51781        26.68935        -0.04498
C         42.76684        28.80940        -0.21767
C         41.51436        29.52382        -0.35016
C         42.81247        31.67918        -0.44142
C         41.50596        30.93010        -0.50503
C         42.75245        33.05745        -1.05968
C         41.51219        33.81776        -0.77083
C         42.77859        35.94316        -0.93364
C         41.53886        35.23851        -0.85740
C         42.76448        37.37272        -0.91101
C         41.52773        38.07817        -0.95484
C         42.79784        40.26615        -0.85789
C         41.52966        39.56065        -1.23572
C         42.77586        41.67032        -0.63304
C         41.51902        42.35626        -0.40287
C         42.77257        44.43109         0.06088
C         41.55508        43.74858        -0.03281
C         42.81751        45.81748         0.65814
C         41.50998        46.57133         0.58066
C         42.72581        48.72456         0.70918
C         41.50159        47.95650         0.78360
C         42.73336        50.07082         1.01107
C         41.53196        50.70988         1.66788
C         42.61717        52.91736         1.19781
C         41.47423        52.20907         1.48950
C         43.84686        21.06031         1.41914
C         45.17618        23.18633         1.11908
C         43.90595        22.45826         1.16355
C         45.21306        24.57254         0.86643
C         43.96545        25.34419         0.76824
C         45.21675        27.39127         0.16030
C         43.99353        26.72739         0.25555
C         45.24428        28.78348        -0.23107
C         44.00288        29.46030        -0.37332
C         45.31015        31.54245        -1.15236
C         44.00394        30.85457        -0.86247
C         45.38019        33.03677        -1.50489
C         44.03457        33.78413        -1.35648
C         45.23674        35.90111        -0.83642
C         44.04672        35.24630        -1.06724
C         45.21001        37.33794        -0.49791
C         43.98491        38.09700        -0.77955
C         45.25493        40.22512        -0.70652
C         44.01501        39.52433        -0.78033
C         45.24038        41.68895        -1.05367
C         43.98904        42.39357        -0.58565
C         45.22346        44.52581        -0.28324
C         44.01333        43.78388        -0.27167
C         45.22397        45.94507        -0.03304
C         44.01641        46.60695         0.21617
C         45.22201        48.80428         0.34268
C         43.92586        48.09540         0.02981
C         45.20310        50.18168         0.63805
C         43.92840        50.87272         0.84426
C         43.84864        52.25365         0.93120
C         47.61874        23.16082         1.09608
C         46.41762        22.50314         1.24565
C         47.67260        24.54587         0.78062
C         46.44388        25.25828         0.65897
C         47.68965        27.34191         0.25956
C         46.45869        26.66680         0.37809
C         47.68732        28.85206         0.30362
C         46.47510        29.49357        -0.32830
C         47.74347        31.60686        -0.53653
C         46.54331        30.85568        -0.69435
C         47.73496        33.05744        -0.66056
C         46.56705        33.75968        -0.92265
C         47.78812        35.95123        -0.58512
C         46.57379        35.25227        -1.15479
C         47.79113        37.36923        -0.45298
C         46.50261        38.09368        -0.30836
C         47.69629        40.27542        -0.48017
C         46.48751        39.56370        -0.51521
C         47.70060        41.71584        -0.57762
C         46.50924        42.41283        -0.71447
C         47.72854        44.58931        -0.39228
C         46.47344        43.91066        -0.86199
C         47.71446        45.98324        -0.11385
C         46.46362        46.68729        -0.02840
C         47.66768        48.80378         0.49795
C         46.45435        48.10100         0.25682
C         47.63010        50.16982         0.79179
C         46.42276        50.85764         0.85292
C         50.17295        24.55812         0.67174
C         48.91342        25.23972         0.56928
C         50.19122        27.30629        -0.10471
C         48.90528        26.63119         0.32099
C         50.18642        28.80945         0.03159
C         48.99162        29.50862        -0.06325
C         50.20745        31.64180        -0.25219
C         48.98045        30.92773        -0.26394
C         50.17854        33.06931        -0.32882
C         48.98657        33.77978        -0.46803
C         50.23388        35.96281        -0.39675
C         48.98342        35.23412        -0.45555
C         50.22989        37.40218        -0.46876
C         48.98945        38.08714        -0.38822
C         50.17393        40.26634        -0.78882
C         48.98690        39.57796        -0.11259
C         50.19206        41.74902        -0.48681
C         48.96169        42.44028        -0.48653
C         50.18307        44.56947        -0.23332
C         48.94582        43.86582        -0.35898
C         50.17942        45.98793        -0.06199
C         48.94359        46.66296         0.09581
C         50.17393        48.81456         0.07765
C         48.97942        48.07141         0.62164
C         51.37000        25.23476         0.64652
C         52.64800        27.35369         0.46126
C         51.44079        26.63634         0.41270
C         52.65582        28.79017         0.27826
C         51.43661        29.50308         0.07329
C         52.68954        31.61562        -0.01350
C         51.45467        30.93091        -0.05048
C         52.70865        33.05085        -0.48332
C         51.45351        33.80635        -0.01155
C         52.68836        35.98303        -0.62448
C         51.44099        35.25863        -0.43275
C         52.70856        37.43803        -0.49494
C         51.47166        38.12660        -0.49772
C         52.68077        40.25016        -0.47639
C         51.48134        39.55841        -0.51402
C         52.68517        41.70399        -0.07377
C         51.40333        42.44229        -0.35824
C         52.65403        44.58223        -0.22939
C         51.41564        43.86219        -0.26016
C         52.65682        46.00739        -0.18355
C         51.41514        46.71407        -0.08494
C         51.33583        48.15501        -0.15702
C         55.07652        27.37359         0.77199
C         53.89857        26.68915         0.72034
C         55.10771        28.79933         0.60903
C         53.88178        29.50412         0.38399
C         55.16059        31.62169         0.40393
C         53.90586        30.93254         0.25213
C         55.17394        33.10591         0.46475
C         53.92096        33.81936         0.02851
C         55.22208        36.00627        -0.05453
C         54.04179        35.23666        -0.41142
C         55.20022        37.42622        -0.24100
C         53.94872        38.12443        -0.42959
C         55.15881        40.27855        -0.52635
C         53.94036        39.55618        -0.46488
C         55.11944        41.72819        -0.97834
C         53.90575        42.46807        -0.48828
C         55.12670        44.59705        -0.49723
C         53.89397        43.86149        -0.40505
C         55.10391        46.00075        -0.38900
C         53.91003        46.69018        -0.23979
C         56.31837        29.49960         0.67707
C         56.33625        30.89678         0.58752
C         56.40730        33.90841         0.49025
C         56.38145        35.27178         0.36022
C         56.38248        38.20201        -0.17223
C         56.36453        39.57847        -0.37122
C         56.38503        42.51853        -0.78184
C         56.36295        43.86479        -0.61798
O         43.04021        25.26885         1.94302
O         54.17016        33.63302         1.43850
O         43.15397        33.31173        -2.44166
O         45.75388        37.64833         0.87866
O         53.53236        35.49459        -1.75504
O         32.04572        31.09316        -1.71365
O         37.25068        43.70565         1.87709
O         28.33515        37.48588        -2.52928
O         44.52169        30.89032        -2.22245
O         28.82255        29.70645         2.35102
O         43.03439        45.59172         2.11264
H         42.25987        45.08988         2.44663
O         52.72686        32.97945        -1.92198
H         52.90526        33.88995        -2.26786
O         43.07028        31.93280         0.98522
H         42.23475        32.24201         1.39574
O         45.15759        41.74113        -2.53551
H         45.36996        42.67711        -2.78574
O         33.60124        45.97707         2.56285
H         33.58799        44.99599         2.58399
O         49.94062        40.13162        -2.21944
H         50.73558        40.45401        -2.69307
O         32.12828        26.82094         2.49537
H         32.08074        27.74977         2.80701
O         41.48520        39.66356        -2.71901
H         40.58336        39.39881        -3.00162
O         45.65774        33.05695        -2.94479
H         44.89815        32.58489        -3.36430
O         33.44822        46.32768        -1.10245
H         32.81363        46.02437        -1.78452
O         43.69398        48.28984        -1.42205
H         43.77649        49.25105        -1.60058
O         47.54691        29.16915         1.74627
H         46.69883        28.77890         2.04957
O         54.94288        41.62589        -2.45579
H         55.01261        42.53593        -2.81658
O         46.39806        44.17698        -2.34111
H         47.28833        43.98914        -2.71063
O         29.92024        45.68178         1.76396
H         29.05043        45.22812         1.76227
O         50.24383        27.09570        -1.57170
H         50.31766        26.12843        -1.71965
O         41.70636        50.50291         3.12202
H         42.55243        50.93137         3.37260
O         31.78186        38.16842        -2.93817
H         31.64218        37.25940        -3.27841
O         46.73407        35.47037        -2.60303
H         46.33043        34.68802        -3.06384
O         39.14900        24.96341        -1.93738
H         39.11110        23.99156        -2.08356
O         49.20818        47.95715         2.08135
H         50.03772        47.44666         2.20083
O         51.52915        33.84622         1.44826
H         50.68786        34.21658         1.78838
O         41.91047        24.86573        -1.51631
H         41.11427        25.09144        -2.05669
O         36.37805        25.02997        -1.89570
H         37.26506        25.26242        -2.26574
O         29.23809        39.88955        -3.05791
H         28.72376        39.16757        -3.48799
O         35.30587        48.07494         3.27610
H         34.75373        47.25770         3.34898
O         52.75633        41.64509         1.40994
H         51.92350        41.22889         1.72265
O         49.17281        39.74793         1.32441
H         48.41279        39.32569         1.77856
O         37.47841        48.95277        -0.61269
H         38.26839        49.42857        -0.94957
O         37.73329        40.64420        -2.42570
H         37.49485        39.82029        -2.90196
H         27.07626        27.06045         1.41972
H         25.78965        29.26200         1.08755
H         25.80234        31.63961         0.57273
H         25.83218        33.54141         0.51598
H         25.78740        35.88117        -0.14072
H         25.73306        37.75561        -0.50832
H         25.82315        40.15998        -0.62557
H         25.79287        42.03299        -1.31577
H         25.87496        44.49302        -1.14849
H         27.19738        46.59157        -1.06039
H         29.20598        25.85911         1.42808
H         29.21330        47.75732        -0.26053
H         32.67753        23.58526         0.17793
H         30.68231        24.85073         0.73041
H         32.92464        49.71519         1.06830
H         30.75239        48.54130         0.84229
H         34.35060        22.64419         0.70199
H         34.44810        50.52216         2.17282
H         36.44787        21.45174         0.87426
H         36.48954        51.77078         1.92399
H         40.15732        19.28711         1.30012
H         38.05937        20.48481         0.88117
H         40.21469        53.95032         1.90407
H         38.13857        52.67960         2.12368
H         42.62326        19.30060         1.60755
H         42.58659        54.01652         1.16503
H         44.76248        20.50439         1.66118
H         44.73940        52.87180         0.75646
H         48.54700        22.58649         1.21326
H         46.43316        21.42709         1.46313
H         48.56069        50.70726         1.01941
H         46.42728        51.92191         1.12276
H         50.19036        23.47542         0.85085
H         50.14087        49.90969        -0.01359
H         52.28792        24.66375         0.84151
H         52.22688        48.72605        -0.45519
H         56.02240        26.84137         0.94929
H         53.91530        25.60010         0.85735
H         56.05270        46.55591        -0.42671
H         53.93746        47.78548        -0.16600
H         57.25607        28.94942         0.83920
H         57.29522        31.42162         0.69610
H         57.36665        33.41379         0.69713
H         57.32274        35.82147         0.50376
H         57.35256        37.70608        -0.03314
H         57.32375        40.11282        -0.40186
H         57.35141        42.01058        -0.90978
H         57.30674        44.42873        -0.56270
