         300
 CSIRO Nanostructure Databank - Neutral Graphene Oxide Data Set
C         30.45389        31.55614         0.30840
C         30.83970        32.70237         0.54442
C         30.61226        35.91812         0.94480
C         30.51906        37.13190         0.74196
C         30.22958        40.34564         0.01460
C         30.19243        41.55646         0.29245
C         32.74242        29.11101         0.20059
C         31.57154        29.44711        -0.02203
C         33.36295        31.66217         0.91240
C         30.35509        30.17110        -0.02682
C         33.17433        32.99771         0.63948
C         31.87417        33.59969         1.16698
C         32.93437        35.87709         0.28186
C         31.82729        35.09532         0.95424
C         32.74485        37.30086        -0.21498
C         31.32088        38.01001        -0.17732
C         32.69771        40.25624         0.07170
C         31.40048        39.46584         0.19525
C         32.63505        41.75213        -0.25120
C         31.26773        42.49604        -0.03510
C         32.63054        44.33961         0.79887
C         31.54559        43.81087         0.53600
C         35.41714        27.21841         0.18147
C         35.40732        28.71163         0.40192
C         34.16869        29.42500        -0.15145
C         35.47330        31.51352        -0.28616
C         34.35195        30.89327         0.18831
C         35.38436        32.94437        -0.73505
C         34.09064        33.66577        -0.32677
C         35.37021        35.92101        -0.43116
C         34.08004        35.16441        -0.37701
C         35.34487        37.28268        -0.23323
C         34.05142        38.05819        -0.32227
C         35.26627        40.28534        -0.57000
C         34.09059        39.54889         0.08726
C         35.21823        41.83240        -0.80134
C         33.93375        42.55560        -0.30260
C         35.21090        44.83624         0.48642
C         33.95844        44.00746         0.24975
C         35.41669        45.56761         1.76841
C         37.74767        26.96388        -0.73092
C         36.45687        26.68236        -0.21864
C         37.97699        28.53231        -0.41043
C         36.67236        29.34807        -0.32550
C         37.84289        31.49853        -1.00099
C         36.66483        30.70584        -0.53072
C         37.94266        32.96550        -0.52784
C         36.63210        33.75459        -0.56539
C         37.90534        35.86244        -0.51067
C         36.61270        35.12372        -0.48330
C         37.90091        37.34391        -0.31802
C         36.59828        38.07831         0.10779
C         37.87077        40.28651        -0.20281
C         36.56337        39.52879        -0.42609
C         37.81767        41.78422        -0.49402
C         36.51091        42.56829        -0.33768
C         37.77254        44.21787         1.19231
C         36.53098        43.92234         0.34912
C         37.80579        45.41262         2.17814
C         36.49610        46.06561         2.13276
C         40.08468        24.60080         0.53362
C         39.03986        24.87213        -0.08264
C         40.64410        27.26847        -0.44013
C         38.76191        26.05505        -0.86098
C         40.54950        28.68693        -0.88204
C         39.16129        29.25215        -1.13271
C         40.42827        31.47073        -1.56762
C         39.07843        30.75245        -1.36994
C         40.28828        32.97956        -1.67964
C         39.06419        33.71567        -1.23983
C         40.27872        35.87379        -1.30324
C         39.11997        35.19468        -1.06403
C         40.30836        37.35917        -1.30838
C         39.01879        38.10522        -0.98558
C         40.38853        40.28147        -0.83748
C         39.03815        39.59748        -0.91637
C         40.42062        41.69648        -0.33439
C         39.12817        42.48033        -0.24580
C         40.38208        44.03674         1.44786
C         39.10256        43.57284         0.80008
C         40.42439        45.26068         2.38230
C         39.09092        46.04543         2.43243
C         40.38647        48.07980         2.99343
C         39.36750        47.35291         2.83462
C         42.43745        24.95763         1.67060
C         41.02655        25.41822         1.36210
C         42.21714        27.77278         1.36017
C         41.27603        26.80426         0.67278
C         42.42124        29.13790         0.75861
C         41.74585        29.56966        -0.54603
C         42.67829        31.84672        -0.45687
C         41.37056        31.07790        -0.41383
C         42.80111        32.99790        -1.14329
C         41.64866        33.68886        -1.89454
C         42.85670        35.90814        -1.55784
C         41.59766        35.11804        -1.23095
C         42.90581        37.34098        -1.22175
C         41.62497        38.09203        -1.20763
C         42.87872        40.20836        -0.50079
C         41.59229        39.41426        -0.46171
C         42.85070        41.52558        -0.00173
C         41.65499        42.17918         0.30682
C         42.65287        44.46848         0.32052
C         41.75486        43.47847         1.07074
C         42.71932        45.81890         1.08039
C         41.61218        46.20441         2.05612
C         42.95132        48.18979         2.57914
C         41.77693        47.45934         3.11904
C         43.26785        25.74133         2.13270
C         44.73715        27.74281         1.66670
C         43.41563        27.21807         2.23880
C         44.84909        29.32359         1.76610
C         43.64545        29.99174         1.07368
C         45.14200        31.96301         0.22071
C         43.79367        31.33083         0.39287
C         45.28519        33.04530        -0.58797
C         44.15962        33.57392        -1.47888
C         45.41772        35.90500        -1.26949
C         44.15678        35.13248        -1.57358
C         45.43630        37.36941        -1.63331
C         44.11655        38.09708        -1.45625
C         45.43784        40.18319        -0.55361
C         44.11097        39.60842        -0.98812
C         45.42768        41.61640        -0.04897
C         44.11358        42.29288         0.19224
C         45.28493        44.60630         0.10298
C         44.02635        43.80135         0.07100
C         45.20432        46.01891         0.62970
C         44.04519        46.55124         1.10572
C         43.85099        47.76232         1.85246
C         47.06990        27.92682         2.41763
C         46.01130        27.30600         2.34381
C         47.45681        29.19737         1.78246
C         46.20759        29.89117         1.29568
C         47.68986        31.85390         0.63211
C         46.27388        31.41252         1.11550
C         47.75569        33.37300         0.50189
C         46.61120        33.63828        -1.06665
C         48.02313        35.78725        -1.48223
C         46.69727        35.17007        -1.03725
C         48.05816        37.34353        -1.40673
C         46.74271        38.11198        -1.57660
C         47.97699        40.36343        -1.04800
C         46.71821        39.52156        -0.98654
C         47.83866        41.90171        -0.98627
C         46.69821        42.43946        -0.13063
C         47.87304        44.76732        -0.49012
C         46.64718        43.92571         0.04531
C         47.62213        46.08163         0.22346
C         46.53156        46.56689         0.54670
C         50.01937        29.37366         2.12523
C         48.65308        29.99565         2.24226
C         50.00083        32.07615         1.64890
C         48.83416        31.38491         1.55414
C         50.15920        33.44878         1.04269
C         49.09895        33.89088         0.05535
C         50.60306        35.86147        -0.90996
C         49.26391        35.11124        -0.80113
C         50.50189        37.35409        -0.47506
C         49.30180        38.09695        -0.98949
C         50.46735        40.37995        -0.30830
C         49.27126        39.62351        -0.83518
C         50.43887        41.85099        -0.63937
C         49.15243        42.59754        -0.73941
C         50.46245        44.55856        -0.76128
C         49.17460        44.02984        -0.16325
C         51.09584        29.96397         2.24478
C         52.44880        32.17623         2.03524
C         51.22809        31.44300         2.47977
C         52.51444        33.25759         1.45810
C         51.50500        34.16175         0.90449
C         52.80132        36.06164        -0.07875
C         51.74441        35.17981        -0.11975
C         53.00496        37.29415        -0.40206
C         51.77485        38.11006        -0.15042
C         52.80628        40.44963        -0.77662
C         51.85801        39.61552         0.01642
C         52.86257        41.67649        -0.93893
C         51.71029        42.55188        -1.31518
C         51.55261        43.97518        -0.87675
O         50.85429        37.59183         0.90489
O         44.58742        44.35069        -1.17241
O         32.87820        35.74982         1.74328
O         38.54157        42.43718        -1.57004
O         39.98678        26.46916        -1.38773
O         41.56841        28.94577         1.93326
O         39.27519        33.36433        -2.64367
O         47.04439        29.12846         0.37376
O         33.54887        34.38121        -1.49187
O         47.15184        33.02281        -2.02588
O         32.09018        39.88628         1.38447
O         33.77356        43.73909        -1.14598
O         48.86345        40.12331        -2.16338
O         38.10968        31.15977        -2.39785
O         45.97609        35.73159         0.08949
O         38.33087        36.48958         0.79371
O         43.31126        31.22291         1.79757
O         49.45561        33.74646        -1.32504
O         41.93075        33.63077        -3.24807
O         40.93808        37.96642        -2.48262
O         36.73983        43.81939        -1.06291
O         37.59472        44.03337         2.62654
O         39.63878        42.93537         2.03869
O         41.59312        46.67263         0.69753
O         38.61296        38.92909        -2.12504
O         31.76599        42.21816        -1.33967
O         43.55324        35.59456        -2.80449
O         33.32497        37.61369        -1.50554
O         40.68592        41.32524        -1.76409
O         47.01580        43.05633         1.13928
O         44.01385        39.21813        -2.38483
O         44.87961        41.74524         1.30348
O         50.53756        34.50849         1.96734
O         46.21272        39.36504         0.38907
O         46.12083        37.80577        -2.84345
O         39.93999        28.69479        -2.21214
O         35.89258        39.62345        -1.70415
O         35.29550        32.88168        -2.28891
O         50.34320        41.35967         0.76941
O         49.04856        37.77190        -2.38659
O         47.40115        42.25124        -2.33599
H         48.05946        41.87806        -2.96611
O         49.32876        43.99346         1.24167
H         50.05369        43.37533         1.47656
O         40.63511        44.75153         3.72162
H         39.96104        44.04692         3.86380
O         43.24951        27.64965         3.57983
H         42.35842        27.37705         3.88497
O         44.82563        29.71642         3.14933
H         44.07734        29.24758         3.59801
O         50.95742        31.69660         3.83852
H         51.76908        31.55236         4.36783
O         34.21993        29.27495        -1.57912
H         34.28555        30.15518        -2.02410
O         41.39512        38.99959         0.93336
H         41.55207        39.77608         1.51337
O         36.62771        38.14571         1.55630
H         37.11007        37.33855         1.86470
O         48.41838        30.24778         3.61817
H         49.20211        30.72358         3.98482
O         47.27030        34.09706         1.52351
H         46.62452        33.57203         2.07003
O         50.92774        35.87792        -2.30474
H         50.89795        34.95272        -2.63170
O         44.78166        27.36893         0.30965
H         45.66593        27.60114        -0.05591
O         35.35398        31.52814        -2.75888
H         36.29009        31.42893        -3.08382
O         51.47179        42.45090        -2.69828
H         52.20026        42.88806        -3.18451
O         46.08784        31.98275         2.43394
H         45.36889        31.46787         2.89129
O         44.43239        33.09653        -2.79738
H         43.61191        33.33872        -3.33508
O         48.09155        35.46690        -2.87125
H         48.80304        36.01704        -3.27228
O         47.79138        44.94838        -1.87771
H         46.93010        45.34905        -2.11557
O         35.14844        41.99525        -2.21985
H         35.82061        41.41241        -2.63804
O         32.71350        31.02974         1.90735
H         32.17851        31.69037         2.41768
O         35.59581        28.97658         1.78876
H         34.87687        28.54341         2.29508
O         52.15716        39.84539         1.38082
H         51.83139        39.08556         1.90895
O         29.19461        29.59547        -0.36378
H         28.46235        30.24306        -0.35495
O         38.43484        28.48604         0.95887
H         37.65386        28.40378         1.55306
O         35.27111        45.80115        -0.54305
H         35.01731        45.36393        -1.38706
O         31.75690        33.39527         2.59710
H         32.21658        34.14200         3.04248
O         42.74267        29.43146        -1.56640
H         42.33751        29.78946        -2.39923
O         34.50538        39.56177         1.47153
H         33.72269        39.36115         2.03754
O         41.70932        34.82158         0.20277
H         41.66276        35.66375         0.70527
O         42.44098        43.23295         2.31673
H         41.86427        42.67813         2.88366
O         42.00195        47.02092         4.40956
H         41.40152        46.26546         4.61210
O         42.03057        44.69756        -0.94115
H         42.71817        45.00728        -1.57270
O         41.02066        31.05301        -2.81354
H         41.28527        31.87639        -3.31471
O         48.02159        31.31494        -0.63709
H         47.79624        30.35477        -0.66969
O         40.66194        31.32078         0.80448
H         41.30382        31.25151         1.55104
O         38.29131        32.86464         0.87679
H         38.64393        33.72750         1.18128
O         38.16389        40.26587         1.21831
H         37.63921        39.54537         1.65852
O         40.39367        25.68954         2.59967
H         40.15787        24.84135         3.02856
O         30.78093        37.98157        -1.47666
H         30.82292        37.07556        -1.84424
