         640
 CSIRO Nanostructure Databank - Neutral Graphene Oxide Data Set
C         23.34557        27.58115        -2.60248
C         23.29258        28.94134        -2.38784
C         23.13923        31.80782        -1.76466
C         23.13295        33.17221        -1.64021
C         23.14368        36.11029        -1.42496
C         23.16474        37.49227        -1.34886
C         23.29491        40.43670        -1.27808
C         23.32265        41.83633        -1.16023
C         23.11712        44.65536        -0.36603
C         22.97826        45.88163         0.23231
C         25.65593        24.68031        -2.15849
C         24.54207        25.41525        -2.49755
C         25.52360        27.39870        -1.44812
C         24.45824        26.79411        -2.17372
C         25.36351        28.80898        -1.03787
C         24.29577        29.62023        -1.64001
C         25.46370        31.71308        -0.94036
C         24.28771        31.02291        -1.43368
C         25.46161        33.16472        -0.89973
C         24.30122        33.89219        -1.23046
C         25.50727        36.02646        -0.84136
C         24.30323        35.33956        -1.16722
C         25.52385        37.45233        -0.73694
C         24.34162        38.19344        -0.99413
C         25.51157        40.26129        -0.26345
C         24.36339        39.63433        -0.83516
C         25.37295        41.67128         0.25460
C         24.33506        42.48784        -0.47013
C         25.45531        44.52204         0.37448
C         24.31963        43.90204        -0.19722
C         25.34227        45.82813         0.93453
C         24.05445        46.44730         0.97468
C         24.87569        48.05526         2.56901
C         23.84166        47.58539         1.79148
C         28.04482        23.12496        -1.47055
C         27.98385        24.54972        -1.27139
C         26.77763        25.28737        -1.52087
C         27.88258        27.32033        -0.56896
C         26.68766        26.66605        -1.15565
C         27.87279        28.80365        -0.28287
C         26.58109        29.55357        -0.45625
C         27.83786        31.68739        -0.02735
C         26.61698        31.00562        -0.59465
C         27.88233        33.15474        -0.35269
C         26.68344        33.86331        -0.59623
C         27.93294        35.98603        -0.39026
C         26.70863        35.28965        -0.61661
C         27.93517        37.41082        -0.23467
C         26.72857        38.13314        -0.36195
C         27.91050        40.18674         0.38412
C         26.70167        39.53975        -0.06383
C         27.84033        41.58388         0.94543
C         26.68089        42.39906         0.43502
C         27.90406        44.46354         1.00151
C         26.69235        43.77028         0.57419
C         27.84184        45.98182         1.09402
C         26.46738        46.44403         1.57727
C         28.15419        48.78313         2.54507
C         26.17836        47.51309         2.41814
C         28.21287        50.15471         2.74677
C         30.43878        23.02034        -0.73443
C         29.17630        22.40518        -1.26998
C         30.43069        24.53416        -0.84434
C         29.19798        25.24144        -0.93807
C         30.38891        27.37903        -0.62276
C         29.18871        26.65316        -0.76063
C         30.39205        28.82646        -0.52010
C         29.14929        29.55966        -0.38600
C         30.36197        31.69682        -0.35719
C         29.13376        30.94521        -0.30660
C         30.34312        33.09034        -0.32965
C         29.11379        33.83394        -0.32440
C         30.38608        35.97670        -0.13697
C         29.14670        35.26372        -0.32088
C         30.35697        37.37228         0.14786
C         29.15441        38.09020         0.09684
C         30.37819        40.21332         0.64157
C         29.12005        39.50416         0.40750
C         30.35507        41.65006         0.82218
C         29.14169        42.33796         0.90323
C         30.35676        44.44306         1.57612
C         29.09400        43.76339         1.10355
C         30.33914        45.95258         1.42696
C         29.13091        46.63832         1.61022
C         30.40651        48.77178         1.68268
C         29.18745        48.05401         1.88490
C         30.43155        50.20721         1.78469
C         29.32040        50.88114         2.28082
C         32.95533        20.28183        -1.00525
C         31.80183        20.93346        -1.25720
C         32.94256        23.12440        -0.79489
C         31.71695        22.43284        -1.36008
C         32.89701        24.51907        -0.61358
C         31.63529        25.23920        -0.70767
C         32.85947        27.38076        -0.49681
C         31.63138        26.66826        -0.62607
C         32.86469        28.80791        -0.54733
C         31.61095        29.52192        -0.57240
C         32.82298        31.66118        -0.54051
C         31.62881        30.97689        -0.50537
C         32.86011        33.14318        -0.25632
C         31.58623        33.85553        -0.72151
C         32.85980        35.98515        -0.15544
C         31.61439        35.29140        -0.24995
C         32.87248        37.36335         0.19872
C         31.60490        38.01946         0.68655
C         32.84219        40.23241         0.59453
C         31.59187        39.52726         0.58218
C         32.84699        41.65220         0.71346
C         31.61372        42.37635         0.87743
C         32.85098        44.49487         1.08958
C         31.62308        43.76166         1.09806
C         32.85205        45.91361         1.25874
C         31.59673        46.64781         1.41365
C         32.89764        48.80500         1.66751
C         31.60881        48.05053         1.46341
C         32.84777        50.25383         1.24492
C         31.63517        50.94098         1.38460
C         32.75559        53.03045         0.82360
C         31.60133        52.33446         1.13000
C         35.51899        18.85438        -0.70228
C         35.38037        20.27607        -0.41130
C         34.18976        20.97547        -0.67961
C         35.32819        23.11933        -0.19843
C         34.14511        22.40805        -0.56484
C         35.31396        24.54125        -0.13171
C         34.09549        25.24431        -0.34421
C         35.31019        27.38780        -0.17007
C         34.09025        26.67359        -0.33249
C         35.31386        28.81668        -0.28264
C         34.10014        29.50130        -0.51809
C         35.35065        31.70046        -0.43571
C         34.11222        30.96219        -0.87485
C         35.35680        33.09768        -0.42985
C         34.10632        33.84775        -0.81802
C         35.31161        35.99310        -0.29064
C         34.10531        35.30722        -0.40615
C         35.31712        37.41349        -0.02447
C         34.07785        38.09215         0.22366
C         35.30898        40.23038         0.44284
C         34.07556        39.51928         0.44703
C         35.31907        41.65078         0.59625
C         34.08294        42.36181         0.72766
C         35.31524        44.49304         0.84239
C         34.08122        43.78312         0.87198
C         35.29353        45.89369         1.01330
C         34.08837        46.62262         1.19186
C         35.26221        48.80409         0.91416
C         34.11615        48.07429         1.19104
C         35.27652        50.24583         0.75074
C         34.03466        50.96015         0.90991
C         35.23906        53.09066         0.47135
C         34.00504        52.37060         0.72759
C         35.25756        54.49459         0.32713
C         37.63827        18.76394         0.57640
C         36.60260        18.14732        -0.32556
C         37.73717        20.25612         0.36120
C         36.54382        20.97755         0.04886
C         37.68806        23.12773         0.49429
C         36.52778        22.40632         0.10067
C         37.71311        24.53822         0.44566
C         36.52102        25.26094         0.13392
C         37.76481        27.40065         0.21145
C         36.53047        26.68378         0.07085
C         37.77163        28.84299         0.07550
C         36.55626        29.53433        -0.15294
C         37.77854        31.68705        -0.12735
C         36.55331        30.97405        -0.22003
C         37.78083        33.09772        -0.25222
C         36.57672        33.81306        -0.33025
C         37.78316        35.96229        -0.30075
C         36.57994        35.27457        -0.35900
C         37.79674        37.46036        -0.46158
C         36.53114        38.13352         0.00180
C         37.79347        40.24179         0.27693
C         36.54552        39.52651         0.24382
C         37.79970        41.65203         0.45718
C         36.56113        42.35875         0.59453
C         37.81301        44.46490         0.66516
C         36.57459        43.78051         0.69840
C         37.81246        45.95864         0.49151
C         36.57080        46.61234         1.05945
C         37.76347        48.74509         0.36752
C         36.55225        48.10557         0.94921
C         37.70764        50.23169         0.11495
C         36.45472        50.94672         0.44066
C         37.69361        53.07255         0.06501
C         36.46660        52.37374         0.34327
C         37.65987        54.47771        -0.06383
C         36.44229        55.16617         0.05874
C         40.20445        15.97634         0.85859
C         39.00393        16.66073         0.67536
C         40.19427        18.78767         0.59290
C         38.97848        18.05828         0.56685
C         40.19177        20.24795         0.70628
C         38.92431        20.92509         0.67014
C         40.18742        23.12964         1.14713
C         38.86800        22.37079         0.92862
C         40.14439        24.57231         0.88038
C         38.95462        25.26000         0.61891
C         40.22490        27.39782         0.46968
C         38.96270        26.69546         0.45536
C         40.25612        28.86030         0.38423
C         39.00044        29.56949         0.19347
C         40.23119        31.71662         0.27326
C         39.01455        30.97962         0.09537
C         40.27808        33.09070         0.01964
C         39.07597        33.79312        -0.55284
C         40.23678        35.95893        -0.12673
C         39.03883        35.26976        -0.26080
C         40.26365        37.39904         0.03692
C         39.05503        38.12056         0.03041
C         40.26354        40.23698         0.34314
C         39.04065        39.53629         0.22000
C         40.27784        41.64577         0.38104
C         39.04242        42.36056         0.47062
C         40.30757        44.50108         0.55102
C         39.04597        43.78354         0.57139
C         40.32777        45.92686         0.60036
C         39.07549        46.65246         1.00841
C         40.23021        48.81242         0.31128
C         39.06501        48.10499         0.56644
C         40.22140        50.24072         0.05567
C         38.98843        50.95876         0.04563
C         40.18618        53.06931        -0.31885
C         38.95209        52.35637        -0.06024
C         40.15618        54.44848        -0.42485
C         38.88450        55.25003        -0.48379
C         40.28968        57.19953         0.20743
C         39.07706        56.56378         0.23846
C         42.67332        16.03297         1.22747
C         41.41592        16.68634         0.86600
C         42.75689        18.74433         0.45865
C         41.41157        18.08130         0.65987
C         42.67893        20.28402         0.29419
C         41.40171        20.95290         0.78958
C         42.66727        23.07452         0.84092
C         41.45273        22.37755         0.94524
C         42.71184        24.53128         1.02752
C         41.40027        25.30441         0.99277
C         42.70127        27.43140         0.32369
C         41.41217        26.71516         0.62363
C         42.71277        28.81749         0.96367
C         41.42918        29.54098         0.61420
C         42.75119        31.68117         0.57537
C         41.42528        31.01549         0.87916
C         42.72682        33.14138         0.50676
C         41.47574        33.82762         0.13270
C         42.70238        35.95152        -0.16115
C         41.48977        35.23553        -0.06372
C         42.72437        37.36324        -0.07825
C         41.51620        38.05818         0.15797
C         42.77321        40.23492         0.09286
C         41.55281        39.49561         0.58219
C         42.77132        41.63748         0.11683
C         41.53030        42.35933         0.32433
C         42.80467        44.47735         0.50377
C         41.51874        43.76250         0.42019
C         42.78880        45.97997         0.52083
C         41.50149        46.68360         0.48404
C         42.70571        48.82730         0.22248
C         41.49515        48.10757         0.35617
C         42.70839        50.23878        -0.01347
C         41.46078        50.93766        -0.10281
C         42.66895        53.01334        -0.66244
C         41.45326        52.34566        -0.38174
C         42.64192        54.43086        -1.08765
C         41.36401        55.19756        -0.79745
C         42.72433        57.22298        -0.26600
C         41.44424        56.60981        -0.38371
C         43.75460        16.75154         1.58792
C         45.11787        18.88580         1.31226
C         43.74808        18.27128         1.54836
C         45.15186        20.27600         1.01035
C         43.93752        20.98450         0.76352
C         45.17490        23.11176         0.80152
C         43.93469        22.38357         0.76441
C         45.18732        24.54084         0.71902
C         43.96468        25.26761         0.73065
C         45.18859        27.38123         0.49845
C         43.96797        26.65962         0.60162
C         45.17586        28.83307         0.42305
C         43.98241        29.55221         0.57052
C         45.22023        31.68431         0.24011
C         43.96129        30.98641         0.49394
C         45.24731        33.07588         0.05447
C         44.02178        33.86507         0.23502
C         45.22777        35.95304        -0.40069
C         43.94396        35.17886        -0.50563
C         45.20992        37.36106        -0.48725
C         43.97177        38.09238        -0.27309
C         45.13869        40.25078        -0.67717
C         43.94755        39.49630        -0.23724
C         45.21001        41.69779        -0.38509
C         44.01972        42.36714        -0.05657
C         45.23608        44.49857        -0.05548
C         44.05026        43.78465         0.10241
C         45.22398        45.98880        -0.27726
C         44.00406        46.73139         0.19765
C         45.21323        48.87016         0.30340
C         43.95657        48.10002         0.19455
C         45.21240        50.30242        -0.01222
C         43.94766        50.96182        -0.17798
C         45.18074        53.06969        -0.59915
C         43.92595        52.34865        -0.48587
C         45.18954        54.45236        -0.92213
C         43.93798        55.23030        -1.26428
C         43.88845        56.57499        -0.56685
C         47.54831        18.88061         1.43815
C         46.32191        18.21279         1.52386
C         47.61313        20.26484         1.19915
C         46.39572        20.98021         1.01112
C         47.64509        23.10652         0.73537
C         46.40684        22.40346         0.83654
C         47.64870        24.52334         0.57088
C         46.41625        25.24780         0.58676
C         47.65966        27.37881         0.31904
C         46.41923        26.67136         0.47345
C         47.65715        28.79764         0.20425
C         46.42986        29.52765         0.24663
C         47.68204        31.64775        -0.05831
C         46.44224        30.94497         0.14184
C         47.67819        33.07008        -0.26404
C         46.45076        33.78133        -0.24650
C         47.67706        35.90873        -0.58187
C         46.43977        35.21650        -0.40788
C         47.66818        37.34135        -0.72510
C         46.45283        38.04630        -0.69273
C         47.69265        40.28107        -0.98508
C         46.41206        39.50236        -0.95409
C         47.69463        41.70891        -0.61051
C         46.45739        42.39306        -0.41241
C         47.71966        44.52288        -0.23810
C         46.47675        43.81361        -0.24098
C         47.71739        45.97157        -0.08989
C         46.52476        46.65566         0.05075
C         47.74710        48.86260         0.02996
C         46.51973        48.10647         0.29184
C         47.69435        50.25272        -0.01228
C         46.44138        50.98356        -0.09294
C         47.64898        53.13216        -0.51482
C         46.43015        52.40256        -0.38238
C         47.61516        54.48022        -0.86788
C         46.39698        55.12869        -1.07725
C         50.11450        20.32509         1.29659
C         48.87702        20.98210         1.12843
C         50.12429        23.05532         0.68121
C         48.88594        22.37814         0.84751
C         50.10386        24.45591         0.22062
C         48.86730        25.23547         0.36673
C         50.14390        27.36734         0.20011
C         48.88682        26.64324         0.25656
C         50.11830        28.79354         0.20641
C         48.90799        29.50780         0.12362
C         50.14804        31.65739        -0.22968
C         48.90869        30.94256        -0.03661
C         50.15342        33.04985        -0.49433
C         48.90383        33.77666        -0.49247
C         50.13286        35.88775        -1.13499
C         48.89002        35.17570        -0.66243
C         50.13909        37.35505        -0.78551
C         48.94340        38.03948        -0.79403
C         50.20635        40.23380        -0.51816
C         48.97998        39.51515        -0.90896
C         50.15533        41.62563        -0.36756
C         48.92698        42.37795        -0.44741
C         50.19211        44.52391        -0.13858
C         48.94887        43.81411        -0.26184
C         50.20445        45.97404        -0.10927
C         48.97193        46.69983        -0.08296
C         50.21492        48.82013        -0.19138
C         48.97793        48.11608        -0.06791
C         50.23082        50.24047        -0.23410
C         48.97733        50.98290         0.00322
C         50.21128        53.06008        -0.76522
C         48.96159        52.48384        -0.25047
C         51.31409        21.01189         1.20878
C         52.62271        23.12210         0.85245
C         51.35271        22.39101         0.89488
C         52.66794        24.49524         0.50113
C         51.42656        25.20897         0.10406
C         52.62758        27.38677         0.19640
C         51.38054        26.67359         0.19325
C         52.63328        28.76029         0.23255
C         51.38140        29.56296         0.48755
C         52.58609        31.65159        -0.30978
C         51.39278        30.96078        -0.11490
C         52.62510        33.05833        -0.54715
C         51.39543        33.76121        -0.63861
C         52.62342        35.89095        -0.85762
C         51.41749        35.17607        -0.81891
C         52.59549        37.33862        -0.87741
C         51.40337        38.05696        -0.73563
C         52.67223        40.16160        -0.40039
C         51.43084        39.48924        -0.51707
C         52.69874        41.57675        -0.00946
C         51.37711        42.34447         0.01843
C         52.67377        44.46527        -0.01682
C         51.42488        43.81534        -0.07630
C         52.70455        45.95000         0.26120
C         51.42913        46.67206        -0.11058
C         52.65966        48.80804        -0.43229
C         51.44300        48.09068        -0.23667
C         52.65645        50.19425        -0.61120
C         51.43051        50.93555        -0.48674
C         51.37013        52.35162        -0.77582
C         55.03945        23.18538         1.20614
C         53.83733        22.49713         1.21502
C         55.10478        24.54541         0.82553
C         53.88714        25.19654         0.49852
C         55.16282        27.34349         0.31796
C         53.90700        26.59872        -0.05794
C         55.19481        28.78898        -0.09059
C         53.89439        29.51247         0.20818
C         55.13222        31.56847        -0.70023
C         53.87883        30.96790        -0.09381
C         55.13159        33.07874        -0.58916
C         53.88244        33.76735        -0.61767
C         55.13235        35.86707        -0.82330
C         53.88488        35.18515        -0.76729
C         55.16819        37.32389        -1.05763
C         53.85093        38.08789        -1.04720
C         55.13399        40.19654        -0.59909
C         53.89421        39.51082        -0.67829
C         55.14559        41.62590        -0.40574
C         53.94313        42.33583        -0.19125
C         55.16315        44.47266        -0.16559
C         53.91214        43.75615        -0.09735
C         55.14359        45.93525        -0.27612
C         53.95786        46.62116        -0.22991
C         55.17613        48.82214        -0.30066
C         53.93093        48.04593        -0.73199
C         55.10255        50.22283        -0.86508
C         53.91676        50.85435        -0.95407
C         57.61579        24.60936         0.86741
C         56.37925        25.25651         0.75327
C         57.62759        27.41876         0.49243
C         56.36157        26.68607         0.53677
C         57.65961        28.80407         0.31056
C         56.37787        29.57153         0.49303
C         57.59212        31.59314        -0.30070
C         56.40118        30.94700        -0.14247
C         57.59304        32.93138        -1.05018
C         56.35059        33.75097        -0.68972
C         57.62012        35.90158        -0.77815
C         56.35745        35.17381        -0.75107
C         57.62504        37.33858        -0.72823
C         56.40509        38.06933        -0.77841
C         57.62468        40.20384        -0.59381
C         56.38089        39.48110        -0.68090
C         57.62482        41.63209        -0.48301
C         56.38968        42.33911        -0.38536
C         57.65370        44.52257        -0.10024
C         56.36384        43.76026        -0.25851
C         57.60506        45.86769        -0.79888
C         56.37848        46.65850        -0.60100
C         57.69628        48.71973        -0.77692
C         56.43016        48.03665        -0.65491
C         58.83049        25.30444         0.78401
C         60.09079        27.43649         0.55021
C         58.86308        26.70011         0.60219
C         60.10273        28.80244         0.40053
C         58.87834        29.53607         0.27768
C         59.92637        31.81871         0.43144
C         58.82616        30.95438         0.11338
C         59.89240        33.14056         0.11422
C         58.96142        33.69521        -0.94046
C         60.04936        35.93388        -0.83933
C         58.83937        35.20764        -0.81615
C         60.06876        37.31375        -0.76710
C         58.86248        38.05333        -0.69954
C         60.07794        40.22899        -0.67070
C         58.85288        39.49073        -0.65140
C         60.09187        41.59385        -0.61635
C         58.87986        42.35088        -0.48787
C         60.13336        44.51289        -0.42715
C         58.91215        43.75243        -0.40851
C         60.15073        45.86563        -0.60289
C         58.92441        46.60030        -0.95719
C         58.88218        48.06211        -0.89041
O         36.77121        47.44814         2.23955
O         50.77002        24.65181        -1.08313
O         45.52706        39.88752        -2.06204
O         39.36029        22.70930         2.27487
O         57.37920        32.60382        -2.41482
O         27.78622        27.84377         0.81810
O         25.51427        29.05111         0.40433
O         58.21301        45.96965        -2.10387
O         45.89017        48.52253         1.57115
O         49.07496        51.95153         1.11024
O         42.96023        45.19709         1.78823
O         54.53179        37.75776        -2.31056
O         27.13606        48.11875         3.22527
O         42.10425        25.00841         2.28164
O         51.99823        41.84479         1.25688
O         41.73301        54.77920        -2.18743
O         37.53880        49.25770        -0.98633
O         53.98142        30.52486         1.31207
O         43.48395        33.85353         1.57887
O         48.45606        39.99525        -2.21194
O         24.85545        41.51006         1.63490
H         25.63001        41.22940         2.18456
O         52.76903        46.05601         1.73504
H         52.01609        45.54264         2.09854
O         55.08382        31.29218        -2.11874
H         55.91946        31.71277        -2.49549
O         41.69457        39.44831         2.06055
H         41.69484        40.37598         2.38145
O         43.81784        34.80197        -1.91955
H         43.81183        35.62491        -2.45300
O         34.18027        31.02004        -2.37448
H         33.41205        30.51189        -2.71597
O         32.95865        33.28641         1.18549
H         32.18094        32.84808         1.59102
O         42.70644        27.68723        -1.11748
H         42.79577        26.82935        -1.58231
O         37.79841        46.18481        -0.94761
H         37.07095        45.65874        -1.34018
O         57.74686        44.87061         1.32775
H         57.64254        44.04490         1.84606
O         56.30597        29.68244         1.93885
H         55.49449        30.19937         2.15997
O         55.38610        28.77186        -1.52693
H         54.75649        28.11010        -1.90482
O         42.61546        20.58421        -1.13675
H         43.04032        19.82586        -1.60264
O         27.84325        46.42805        -0.31460
H         28.65569        46.08010        -0.73995
O         45.12049        46.11378        -1.76340
H         45.83172        45.55958        -2.15291
O         37.11767        18.61347         1.94499
H         37.71920        19.10475         2.54435
O         34.09436        33.81045        -2.28162
H         34.19714        32.85571        -2.54400
O         44.08373        55.55534        -2.67967
H         43.16808        55.60769        -3.04473
O         37.82132        37.68092        -1.93349
H         36.97233        37.33867        -2.28812
O         54.00453        47.95374        -2.18963
H         53.20570        47.48285        -2.50625
O         39.08401        46.57465         2.45916
H         39.97279        46.84114         2.77471
O         31.65531        22.76193        -2.78047
H         32.46143        22.40280        -3.20645
O         33.04860        48.83205         3.14363
H         33.95895        49.14265         3.33871
O         27.66203        31.62801         1.43767
H         27.41559        30.70609         1.67114
O         30.36342        44.22697         3.03832
H         31.16053        44.67356         3.39662
O         50.05080        35.86486        -2.61162
H         49.30318        36.44333        -2.87618
O         53.94650        26.44579        -1.53349
H         54.62092        25.76371        -1.74093
O         43.25758        18.76760         2.81789
H         43.88575        18.49770         3.51913
O         43.29138        18.22464        -0.79354
H         43.24628        17.24523        -0.75607
O         41.25689        31.14375         2.33944
H         41.81291        30.44012         2.75255
O         39.23265        33.69226        -2.02133
H         38.49564        34.19577        -2.42861
O         31.58209        37.74772         2.14390
H         30.76076        38.14844         2.50174
O         30.50224        22.69694         0.68682
H         29.71566        23.08884         1.12091
O         27.54353        41.37944         2.39889
H         27.78320        42.21453         2.85845
O         31.49754        33.88836        -2.17588
H         32.39634        34.13271        -2.52041
O         42.72591        28.70624         2.41674
H         43.51458        28.18303         2.67624
O         55.14665        48.93245         1.14531
H         55.96214        49.38979         1.43615
O         51.36857        29.80064         1.94711
H         52.24235        30.21290         2.15639
O         59.67868        33.44918        -2.17339
H         58.98147        33.03222        -2.76555
O         38.66768        55.57060        -1.90648
H         39.54600        55.73342        -2.31368
H         22.54399        27.08710        -3.16995
H         22.45131        29.50871        -2.80836
H         22.22009        31.30502        -2.09395
H         22.21289        33.71811        -1.88631
H         22.19630        35.61695        -1.67900
H         22.23381        38.04291        -1.53992
H         22.44005        39.97659        -1.79137
H         22.51259        42.41089        -1.63095
H         22.25755        44.20548        -0.88017
H         22.01731        46.41459         0.19661
H         25.69154        23.61988        -2.43907
H         23.71046        24.94113        -3.03816
H         24.73473        48.89998         3.25570
H         22.84505        48.04632         1.83561
H         27.13857        22.59206        -1.79023
H         27.40057        50.65794         3.28615
H         29.14410        21.31478        -1.40684
H         29.33378        51.97215         2.40249
H         32.95222        19.18253        -0.99080
H         30.89836        20.34828        -1.48308
H         32.68719        54.11348         0.65653
H         30.65001        52.88074         1.18716
H         34.74421        18.36552        -1.31063
H         34.32900        55.07448         0.40786
H         36.69446        17.08792        -0.60642
H         36.42077        56.25538        -0.08274
H         40.20556        14.88896         1.01911
H         38.05867        16.10062         0.68199
H         40.39949        58.18923         0.67727
H         38.22125        57.04836         0.72980
H         42.68133        14.93509         1.30997
H         42.76674        58.24023         0.15329
H         44.63930        16.22669         1.97751
H         44.83834        57.11237        -0.43533
H         48.46683        18.29965         1.59388
H         46.33161        17.14068         1.76379
H         48.54522        55.05277        -0.97676
H         46.39846        56.18265        -1.38383
H         50.14320        19.24886         1.51260
H         50.21518        54.08954        -1.14971
H         52.24524        20.45232         1.36501
H         52.28058        52.85868        -1.12242
H         55.95393        22.65153         1.49734
H         53.84815        21.44130         1.51508
H         56.02408        50.76653        -1.12051
H         53.89445        51.89643        -1.30253
H         57.65278        23.52053         1.01295
H         57.70859        49.81743        -0.71034
H         59.77563        24.74937         0.87109
H         61.03874        26.88525         0.63715
H         61.06125        29.33938         0.36021
H         60.75839        31.42011         1.03224
H         60.70425        33.79244         0.47498
H         60.99753        35.38730        -0.93397
H         61.03882        37.82685        -0.78169
H         61.03565        39.69854        -0.74429
H         61.05674        42.11561        -0.65044
H         61.09215        43.99353        -0.28462
H         61.09961        46.41981        -0.54688
H         59.83131        48.61758        -0.85564
