         410
 CSIRO Nanostructure Databank - Neutral Graphene Oxide Data Set
C         27.96852        27.43528        -0.82384
C         27.91036        28.84838        -0.95670
C         26.71444        29.56925        -0.88093
C         27.85753        31.74151        -0.71625
C         26.69242        30.97028        -0.76544
C         27.86674        33.15302        -0.41466
C         26.65797        33.85366        -0.18459
C         27.82913        35.98786        -0.09994
C         26.64016        35.22533        -0.02331
C         27.78755        37.43353        -0.08629
C         26.61677        38.16394         0.11784
C         27.73431        40.35236         0.19399
C         26.58439        39.56889         0.25387
C         27.77733        41.77275         0.47031
C         26.57881        42.51606         0.66495
C         27.83827        44.59134         0.85508
C         26.60534        43.88267         0.83364
C         27.86964        46.00328         1.00975
C         30.42941        27.44611        -0.90056
C         29.17514        26.76538        -0.84864
C         30.44899        28.86912        -0.95752
C         29.17075        29.56770        -1.17426
C         30.39680        31.78493        -0.70744
C         29.13912        31.10410        -1.04255
C         30.36663        33.18389        -0.46149
C         29.09688        33.88155        -0.38601
C         30.31708        36.03180        -0.23126
C         29.07343        35.29758        -0.24710
C         30.32849        37.45149        -0.25633
C         29.02956        38.16309        -0.37942
C         30.24892        40.39570        -0.00328
C         28.98212        39.69904        -0.21816
C         30.27062        41.74936         0.30544
C         29.02473        42.46482         0.50348
C         30.31575        44.58180         0.83114
C         29.06128        43.87157         0.72027
C         30.31315        46.01559         0.95545
C         29.06824        46.69052         1.02701
C         32.91407        24.62987        -1.12256
C         31.72054        25.30830        -1.04875
C         32.90142        27.43702        -0.80972
C         31.67796        26.72511        -0.90746
C         32.89198        28.88029        -0.71676
C         31.64707        29.60457        -0.84124
C         32.82504        31.77856        -0.52506
C         31.61759        31.05912        -0.72051
C         32.82660        33.17814        -0.27347
C         31.58365        33.89614        -0.27922
C         32.76263        36.07530        -0.04169
C         31.55762        35.33739        -0.18390
C         32.79468        37.48849        -0.07607
C         31.54017        38.16779        -0.24974
C         32.76018        40.40002        -0.18658
C         31.47315        39.64973        -0.34247
C         32.74875        41.78369         0.32693
C         31.52657        42.46762         0.47500
C         32.80629        44.49436         1.30367
C         31.52665        43.85781         0.78882
C         32.81749        46.02751         1.25243
C         31.55849        46.75436         0.99209
C         32.84755        48.85295         0.70285
C         31.63110        48.13260         0.79809
C         35.47804        23.20448        -1.38084
C         35.41173        24.60084        -1.08214
C         34.16089        25.30840        -1.01009
C         35.37773        27.41570        -0.59948
C         34.14272        26.72280        -0.81767
C         35.35637        28.86257        -0.42089
C         34.10309        29.56686        -0.54949
C         35.34630        31.78444        -0.20973
C         34.09695        31.04392        -0.58976
C         35.26326        33.19606         0.22556
C         34.03439        33.86932         0.10404
C         35.19816        36.07249         0.76699
C         33.94913        35.31648         0.40698
C         35.32405        37.50069         0.33762
C         34.08204        38.21913        -0.00620
C         35.12415        40.49250        -0.36768
C         34.01513        39.61878        -0.15226
C         35.20177        41.80307         0.05139
C         33.99788        42.49852         0.44440
C         35.26245        44.64111         0.26916
C         34.05027        43.85360         0.72929
C         35.36627        46.05975         0.77078
C         34.11589        46.79278         1.04254
C         35.36435        48.91668         0.59017
C         34.09071        48.23368         0.73605
C         35.42883        50.32501         0.44358
C         37.92688        23.19119        -1.18980
C         36.67621        22.54142        -1.44598
C         37.89680        24.59557        -0.86164
C         36.62994        25.29146        -0.83998
C         37.83124        27.35929        -0.16553
C         36.58063        26.68645        -0.54180
C         37.80798        28.84935         0.01860
C         36.53501        29.56525        -0.16782
C         37.75689        31.74642         0.35382
C         36.47024        30.96849         0.37486
C         37.71794        33.10860         0.65836
C         36.45744        33.81376         0.68354
C         37.76001        35.93978         1.18640
C         36.43508        35.24377         1.03684
C         37.79745        37.39191         0.94037
C         36.62153        38.05435         0.42233
C         37.85983        40.19466         0.62262
C         36.94717        39.40295         0.00546
C         37.76313        41.66932         0.68601
C         36.49565        42.43134         0.41759
C         37.77996        44.53658         0.52147
C         36.57873        43.90374         0.37341
C         37.85166        45.99193         0.90289
C         36.55461        46.74066         0.69370
C         37.84487        48.85562         0.49066
C         36.59055        48.19022         0.64415
C         37.87287        50.27267         0.38392
C         36.64173        50.97966         0.37029
C         40.45799        20.51318        -1.99647
C         39.25107        21.16493        -1.88043
C         40.39844        23.08048        -0.84487
C         39.15061        22.46858        -1.31258
C         40.36950        24.56823        -0.54639
C         39.11007        25.31864        -0.66738
C         40.32979        27.45871        -0.25272
C         39.12899        26.71358        -0.42354
C         40.37697        28.86841        -0.15323
C         39.08135        29.58911        -0.23116
C         40.27801        31.76641         0.23488
C         39.00906        31.08798        -0.01608
C         40.25498        33.12981         0.59754
C         38.98477        33.83573         0.77986
C         40.29321        35.96588         0.85195
C         39.00629        35.19229         0.99186
C         40.25199        37.41362         1.26275
C         38.99707        38.08423         1.12886
C         40.27266        40.26315         1.01236
C         38.97940        39.57159         1.39189
C         40.24964        41.65444         0.67090
C         39.04478        42.39404         0.62543
C         40.26713        44.49659         0.36149
C         39.04671        43.80435         0.51613
C         40.28677        45.94842         0.26622
C         39.08767        46.69473         0.41402
C         40.31956        48.78713         0.13825
C         39.08901        48.10478         0.36165
C         40.34642        50.22534         0.12327
C         39.13793        50.96960         0.25866
C         40.40933        53.04381         0.07750
C         39.20932        52.38570         0.26542
C         42.93672        20.44421        -1.75832
C         41.70569        21.13143        -1.62904
C         42.92959        23.12406        -0.83999
C         41.70551        22.45344        -1.12990
C         42.92345        24.52694        -0.45834
C         41.66284        25.29283        -0.62725
C         42.79516        27.41891         0.29827
C         41.63423        26.76462        -0.40556
C         42.87056        28.91484        -0.01543
C         41.62214        29.61396        -0.14478
C         42.60806        31.94505        -0.08860
C         41.49452        31.08282        -0.03711
C         42.69006        33.18048         0.58006
C         41.47438        33.80077         0.86613
C         42.76248        35.93905         1.61589
C         41.47749        35.19210         1.37535
C         42.71088        37.46948         1.85165
C         41.44634        38.12913         1.34246
C         42.72720        40.22072         0.82466
C         41.47269        39.55939         1.13196
C         42.66994        41.56774         0.35107
C         41.47721        42.31518         0.34770
C         42.68085        44.41959        -0.13415
C         41.48244        43.75218         0.15540
C         42.82669        45.88811         0.14692
C         41.50792        46.62213         0.05533
C         42.78004        48.69251        -0.28118
C         41.53424        48.03659        -0.03271
C         42.83656        50.14826        -0.13525
C         41.58455        50.91076        -0.01564
C         42.81393        53.00211        -0.52617
C         41.61282        52.31785        -0.09998
C         44.12552        21.06260        -1.39845
C         45.44224        23.09599        -0.72218
C         44.15026        22.40418        -0.96776
C         45.39392        24.54329        -0.29228
C         44.08416        25.22807        -0.14661
C         45.27439        27.28443         0.52313
C         44.09023        26.63271         0.16422
C         45.27295        28.69598         0.66251
C         44.17695        29.46940         0.20323
C         45.37993        31.58321         0.75563
C         44.46154        30.87384         0.04311
C         45.27334        33.02660         1.09374
C         43.97127        33.77735         1.07985
C         45.24384        35.91049         1.21095
C         44.03525        35.25739         1.26299
C         45.29196        37.39621         1.31095
C         44.02094        38.18652         1.47449
C         45.19362        40.19184         0.48281
C         43.97132        39.55623         0.90239
C         45.16781        41.51480        -0.05312
C         43.86565        42.14425        -0.24633
C         45.13842        44.33607        -0.78046
C         43.84299        43.67149        -0.56289
C         45.03080        45.74883        -1.20355
C         43.92212        46.55855        -0.65678
C         45.07921        48.65407        -1.30492
C         43.94455        47.95493        -0.69078
C         45.06578        50.07555        -1.41857
C         44.07577        50.88656        -0.66726
C         43.92779        52.33211        -0.91166
C         47.82940        23.00445        -0.02082
C         46.68364        22.36302        -0.39624
C         47.88958        24.41386         0.27121
C         46.58388        25.09296         0.42359
C         47.82399        27.28827         0.83646
C         46.53874        26.54827         0.79247
C         47.78500        28.65778         1.00903
C         46.49597        29.36050         1.18113
C         47.79776        31.61987         1.25967
C         46.52349        30.85984         1.32384
C         47.77070        33.07496         1.15507
C         46.54787        33.78058         1.11925
C         47.72587        35.91505         0.90870
C         46.50900        35.19511         1.04978
C         47.69448        37.35252         0.79370
C         46.51030        38.08604         0.82599
C         47.62498        40.18916         0.12079
C         46.45230        39.49845         0.53373
C         47.57057        41.50534        -0.39150
C         46.34384        42.20520        -0.45978
C         47.55815        44.32673        -1.23165
C         46.31727        43.62127        -0.86464
C         47.54307        45.65828        -1.72242
C         46.24228        46.41700        -1.82116
C         46.95814        48.61613        -2.81477
C         46.13709        47.91928        -1.91474
C         46.87997        49.99574        -3.02281
C         45.96333        50.72694        -2.27861
C         50.35073        24.45825         0.60967
C         49.07537        25.11959         0.55792
C         50.29890        27.25044         0.87107
C         49.07505        26.55937         0.75128
C         50.32169        28.72232         0.82394
C         48.99674        29.47338         0.90011
C         50.25076        31.65785         1.32276
C         48.97559        30.92375         1.20856
C         50.24997        33.10114         1.00878
C         48.99970        33.79537         1.00166
C         50.21684        35.91349         0.65484
C         48.97213        35.21375         0.84961
C         50.22698        37.33238         0.56753
C         48.97218        38.06798         0.76161
C         50.17677        40.13143        -0.10900
C         48.93052        39.55329         0.38395
C         50.12517        41.43800        -0.77619
C         48.79091        42.15604        -0.92104
C         50.04611        44.26612        -1.30388
C         48.80101        43.61464        -1.14208
C         50.04661        45.64383        -1.69870
C         48.80877        46.26386        -2.06849
C         50.14232        48.09922        -3.06037
C         48.93581        47.43457        -2.86982
C         51.52055        25.13420         0.82243
C         52.77850        27.29339         1.03921
C         51.55805        26.56665         0.93164
C         52.75580        28.73090         1.19052
C         51.56881        29.42885         1.14317
C         52.77976        31.65281         1.00091
C         51.55337        30.90026         1.33906
C         52.70228        33.01613         0.70264
C         51.46346        33.76227         0.74364
C         52.65172        35.93303         0.35943
C         51.44963        35.19949         0.55465
C         52.65807        37.34280         0.29198
C         51.42189        38.05308         0.37259
C         52.62643        40.17031        -0.21223
C         51.38854        39.47260         0.06768
C         52.59565        41.52874        -0.57016
C         51.37117        42.21453        -0.81878
C         52.54674        44.35149        -1.13210
C         51.31211        43.58667        -1.12753
C         52.52042        45.74902        -1.36823
C         51.28037        46.35865        -1.82467
C         51.30423        47.60452        -2.46452
C         55.24776        27.29291         0.96965
C         54.05966        26.63415         0.92444
C         55.33016        28.73758         1.24387
C         54.01685        29.50220         1.35651
C         55.24431        31.61163         0.78735
C         54.02415        30.94461         1.01139
C         55.23645        33.02546         0.49968
C         53.94007        33.68726         0.27466
C         55.18762        35.94342         0.24638
C         53.91787        35.21771         0.11294
C         55.14999        37.38376         0.26586
C         53.90382        38.07361         0.15790
C         55.11282        40.22607        -0.05266
C         53.88311        39.48044        -0.04722
C         55.10387        41.62676        -0.30527
C         53.87904        42.21625        -0.95078
C         54.96223        44.47800        -0.71303
C         53.78304        43.71491        -0.87144
C         54.89810        45.88602        -0.85580
C         53.71028        46.49907        -1.21479
C         56.51340        29.49927         0.82472
C         56.47425        30.85054         0.69936
C         56.39483        33.79780         0.38992
C         56.37102        35.20081         0.27985
C         56.34556        38.15340         0.33618
C         56.32498        39.52301         0.21143
C         56.23418        42.45680        -0.12392
C         56.18762        43.81911        -0.35555
O         45.69192        24.20264        -1.68222
O         49.68385        29.26732        -0.40197
O         49.05846        39.11381         1.78463
O         34.21470        35.75272         1.80857
O         37.80988        27.98077         1.19873
O         54.78676        29.14991         2.54833
O         44.44916        33.13065         2.32712
O         50.93610        31.32714         2.60783
O         46.31352        30.01744         2.50365
O         38.95573        30.47477        -1.38391
O         53.84028        34.32397        -1.04800
O         33.56596        46.54169         2.40981
O         43.60414        42.65666        -1.59057
O         40.33399        23.60145         0.54558
O         43.68533        31.57130        -0.88123
O         28.93019        39.04442        -1.53843
O         36.98902        35.54142         2.37324
O         29.16590        30.44006        -2.34944
O         35.05887        31.57614        -1.61186
O         47.85428        47.90921        -3.61617
O         36.88136        42.03969         1.81982
O         43.94454        50.56025         0.75175
O         46.34499        25.50211         1.81360
O         36.21799        39.96037        -1.04650
O         49.37830        41.40810        -2.05624
O         45.22019        45.81812        -2.68363
O         44.94859        38.01509         2.61395
O         32.12784        40.23868        -1.52630
O         41.80289        26.24321        -1.75882
O         41.98934        35.30138         2.71153
O         38.77905        39.74976         2.82074
H         39.50770        39.28698         3.28614
O         43.25724        45.98413         1.56394
H         43.20839        46.93083         1.81953
O         42.43208        27.33694         1.71767
H         43.17497        27.70504         2.24253
O         32.79903        44.12949         2.72634
H         33.28196        44.85058         3.19707
O         35.01044        44.82094        -1.18185
H         35.80933        45.23160        -1.57670
O         38.01121        45.98404         2.36814
H         37.31115        45.40728         2.74299
O         36.11259        30.79681         1.79259
H         36.72802        30.14030         2.18556
O         42.55245        37.66965         3.27982
H         43.44509        37.56283         3.68496
O         54.04508        41.92333        -2.40184
H         53.23338        42.24174        -2.85317
O         40.57581        36.01695        -0.59854
H         39.82037        36.46113        -1.03900
H         27.03083        26.87171        -0.71282
H         25.76549        29.01800        -0.80971
H         25.71464        31.44893        -0.61909
H         25.70501        33.30949        -0.15743
H         25.67379        35.72418         0.12568
H         25.66673        37.63191         0.26361
H         25.61682        40.03028         0.49506
H         25.61015        41.99867         0.64742
H         25.66663        44.44244         0.95376
H         26.92111        46.55077         1.10652
H         29.16141        25.67058        -0.76786
H         29.04875        47.78285         1.14051
H         32.89142        23.54012        -1.25384
H         30.78674        24.73761        -1.13514
H         32.77775        49.93771         0.53951
H         30.70436        48.70546         0.65350
H         34.55587        22.64153        -1.57621
H         34.50315        50.91495         0.40603
H         36.66805        21.46823        -1.67891
H         36.63770        52.07299         0.27203
H         40.48643        19.49503        -2.41052
H         38.34385        20.65155        -2.22763
H         40.43583        54.14235         0.04432
H         38.29930        52.98344         0.40513
H         42.94443        19.41540        -2.14488
H         42.75824        54.09240        -0.66215
H         45.06951        20.51044        -1.50548
H         44.75586        52.89266        -1.36697
H         48.74017        22.40088         0.10442
H         46.69995        21.27020        -0.51578
H         47.54012        50.48048        -3.75231
H         45.93133        51.81684        -2.39795
H         50.38906        23.36527         0.50596
H         50.17066        48.99968        -3.68680
H         52.45302        24.55819         0.88769
H         52.24795        48.14966        -2.59311
H         56.18422        26.74798         0.77756
H         54.07706        25.55380         0.72604
H         55.80813        46.48552        -0.71071
H         53.69349        47.58861        -1.35341
H         57.43931        28.94882         0.60028
H         57.39369        31.37728         0.40940
H         57.37913        33.31834         0.48015
H         57.33881        35.72052         0.28822
H         57.31097        37.64974         0.47751
H         57.27546        40.07162         0.25095
H         57.17594        42.02135         0.23934
H         57.08972        44.43000        -0.20751
