         430
 CSIRO Nanostructure Databank - Neutral Graphene Oxide Data Set
C         27.96466        27.48298        -0.86078
C         27.95840        28.91258        -0.86081
C         26.76163        29.64737        -1.01027
C         27.99895        31.74141        -0.97399
C         26.79003        31.03537        -1.08835
C         28.09155        33.22646        -1.26542
C         26.80291        34.00450        -1.18251
C         27.84092        35.91227         0.07511
C         26.71973        35.24706        -0.69144
C         27.89568        37.41630        -0.07506
C         26.67686        38.15622        -0.07913
C         27.90842        40.30080        -0.43740
C         26.65444        39.51649        -0.17380
C         27.84452        41.71106         0.16637
C         26.71876        42.53599        -0.41316
C         28.03810        44.58819        -0.27929
C         26.81391        43.87977        -0.55864
C         28.14878        46.00067        -0.55322
C         30.40165        27.45430        -0.65624
C         29.14222        26.78527        -0.77623
C         30.41716        28.87383        -0.59160
C         29.19410        29.60802        -0.71914
C         30.44639        31.73212        -0.51514
C         29.20277        31.03347        -0.74903
C         30.43917        33.15446        -0.36835
C         29.22648        33.89212        -0.51859
C         30.37036        35.94695         0.15699
C         29.17171        35.23996        -0.17296
C         30.35315        37.39467         0.25185
C         29.13352        38.10991         0.02926
C         30.35662        40.24866         0.15467
C         29.15841        39.54493        -0.02053
C         30.37379        41.70695         0.14655
C         29.17854        42.42485         0.08108
C         30.45277        44.54345         0.19794
C         29.19920        43.85248         0.05905
C         30.38668        46.02144         0.50353
C         29.28938        46.68970        -0.29087
C         32.87735        24.63938        -0.81465
C         31.68542        25.32052        -0.78697
C         32.87502        27.43169        -0.43891
C         31.64547        26.73403        -0.62022
C         32.87288        28.85330        -0.28706
C         31.65251        29.57235        -0.40135
C         32.86163        31.69350         0.00291
C         31.64267        31.00319        -0.30644
C         32.84288        33.09168         0.19861
C         31.62025        33.83244         0.05005
C         32.78859        35.93541         0.80519
C         31.57971        35.23501         0.25341
C         32.81525        37.41417         0.51294
C         31.57788        38.11543         0.38833
C         32.83264        40.25480         0.37793
C         31.59290        39.54191         0.31331
C         32.84999        41.69130         0.29932
C         31.63418        42.40366         0.18273
C         32.93626        44.57316        -0.07614
C         31.64151        43.84113         0.18612
C         32.92872        46.02232         0.35704
C         31.72522        46.72264         0.47336
C         32.94855        48.79537         0.83006
C         31.75095        48.10926         0.73756
C         35.41005        23.20470        -1.01350
C         35.36652        24.59551        -0.71245
C         34.12276        25.31033        -0.65096
C         35.35264        27.40818        -0.19750
C         34.11989        26.71738        -0.42759
C         35.34447        28.83208         0.03796
C         34.10651        29.54778        -0.04093
C         35.31160        31.65102         0.38479
C         34.09241        30.95902         0.12385
C         35.30289        33.07349         0.50205
C         34.07341        33.79269         0.44989
C         35.29329        35.89528         0.58353
C         34.07650        35.20201         0.53576
C         35.29604        37.35679         0.22557
C         34.02073        38.10623         0.49500
C         35.31523        40.23531         0.58669
C         34.05174        39.53092         0.45653
C         35.30366        41.65393         0.65076
C         34.11044        42.39980         0.42573
C         35.38731        44.54058         0.47341
C         34.16034        43.81374         0.35470
C         35.40832        45.97572         0.50740
C         34.17006        46.70827         0.50661
C         35.45000        48.81173         0.85599
C         34.18445        48.11533         0.72584
C         35.49120        50.23649         0.95906
C         37.84123        23.16853        -0.82658
C         36.59909        22.51899        -1.07404
C         37.82835        24.56270        -0.52975
C         36.59150        25.28306        -0.47949
C         37.81502        27.35713         0.10356
C         36.57928        26.68853        -0.19665
C         37.81068        28.78672         0.38604
C         36.55260        29.52011         0.32880
C         37.74556        31.66083         0.81779
C         36.54047        30.93674         0.52623
C         37.76077        33.05954         0.86817
C         36.52047        33.78226         0.70344
C         37.75479        35.93978         1.08829
C         36.50338        35.19291         0.70962
C         37.73996        37.36908         0.64839
C         36.54888        38.08888         0.60687
C         37.85435        40.14465         1.05831
C         36.53378        39.50647         0.66588
C         37.86576        41.66244         1.01698
C         36.55573        42.39507         0.88234
C         37.84875        44.51376         0.71244
C         36.60336        43.83708         0.62202
C         37.85512        45.92690         0.79472
C         36.64420        46.65453         0.72230
C         37.92238        48.79077         1.00538
C         36.66236        48.09413         0.87022
C         37.92795        50.22427         1.10477
C         36.67871        50.91205         1.07203
C         40.32162        20.36158        -1.14519
C         39.13430        21.05118        -1.13797
C         40.30432        23.14124        -0.59046
C         39.08544        22.45031        -0.85601
C         40.29209        24.53606        -0.28760
C         39.05531        25.24351        -0.25211
C         40.26618        27.25255         0.56618
C         39.01472        26.62554         0.11237
C         40.26115        28.74661         0.84061
C         38.99196        29.46241         0.64048
C         40.24911        31.66279         0.67447
C         38.99790        30.88105         1.15679
C         40.26964        33.07155         1.31146
C         39.00729        33.81835         0.93640
C         40.27472        35.92623         0.58330
C         39.03109        35.18832         0.80368
C         40.26109        37.30693         0.27203
C         38.98395        38.02537         0.24988
C         40.30133        40.22760         0.19378
C         39.00212        39.52649         0.28964
C         40.25336        41.65713         0.20375
C         39.10280        42.37118         0.60820
C         40.33078        44.52160         0.45490
C         39.09271        43.78474         0.62651
C         40.36317        45.91420         0.66899
C         39.13710        46.59462         1.21772
C         40.39671        48.75902         1.04355
C         39.14403        48.08399         1.02445
C         40.40541        50.20589         1.19314
C         39.16044        50.92224         1.25417
C         40.37717        53.01504         1.55501
C         39.19227        52.33494         1.47410
C         42.78399        20.32226        -0.87108
C         41.55312        21.02796        -0.87710
C         42.78076        23.09766        -0.35858
C         41.54592        22.42454        -0.60975
C         42.77487        24.51005        -0.11239
C         41.54257        25.21845        -0.05255
C         42.75976        27.31318         0.42935
C         41.55089        26.59555         0.28387
C         42.75904        28.75438         0.62035
C         41.54808        29.47786         0.74302
C         42.77499        31.58708         0.69651
C         41.55692        30.89321         0.79155
C         42.82769        33.06549         0.77942
C         41.56380        33.83633         1.01538
C         42.72122        35.92260         0.26138
C         41.51138        35.24377         0.57908
C         42.69882        37.33701         0.08932
C         41.46933        38.03835         0.07823
C         42.67986        40.14012        -0.68015
C         41.45558        39.48851        -0.05815
C         42.68337        41.67260        -0.62905
C         41.42964        42.41561        -0.25691
C         42.74404        44.53778        -0.05799
C         41.51709        43.84664         0.07165
C         42.76866        45.92507         0.20888
C         41.58017        46.62380         0.55193
C         42.87199        48.74837         0.76996
C         41.60830        48.04758         0.83999
C         42.92998        50.16530         1.31934
C         41.61533        50.90043         1.28262
C         42.82801        53.03933         1.34164
C         41.62247        52.32530         1.41591
C         43.97000        20.97355        -0.60183
C         45.24269        23.06447        -0.06393
C         44.00100        22.36930        -0.34059
C         45.23951        24.48068         0.09996
C         44.00370        25.20536         0.09223
C         45.24329        27.31708         0.40858
C         43.99679        26.61464         0.30030
C         45.23932        28.76213         0.46489
C         43.99877        29.46550         0.53913
C         45.21344        31.61677         0.23441
C         43.99787        30.89292         0.52568
C         45.21004        33.03987         0.03536
C         44.00663        33.77942         0.24116
C         45.16037        35.86954        -0.36950
C         43.94956        35.16934         0.10114
C         45.17131        37.37368        -0.38982
C         43.99720        38.09787         0.22475
C         45.16541        40.21876        -0.39167
C         43.97842        39.53578        -0.22894
C         45.17007        41.66795        -0.57940
C         43.97211        42.39786        -0.52824
C         45.19831        44.52973        -0.54799
C         43.98657        43.82486        -0.38269
C         45.23114        45.97710        -0.43740
C         44.10800        46.58702         0.38869
C         45.30648        48.82714         0.20752
C         44.03081        48.09086         0.42135
C         45.30024        50.32783         0.34091
C         44.06499        51.01263         0.79805
C         44.02077        52.37768         0.95877
C         47.65826        23.05341         0.30553
C         46.46992        22.37746         0.05931
C         47.70126        24.45619         0.41184
C         46.47034        25.18202         0.30781
C         47.71476        27.34303         0.73617
C         46.45065        26.60182         0.40630
C         47.72407        28.77701         0.26983
C         46.44876        29.49304         0.31991
C         47.64189        31.54893        -0.47926
C         46.41432        30.88733         0.10779
C         47.67067        33.04942        -0.31271
C         46.45226        33.74769        -0.21552
C         47.66008        35.89866        -0.39573
C         46.45240        35.17090        -0.32439
C         47.66571        37.35297        -0.43462
C         46.46139        38.08491        -0.36145
C         47.64808        40.21662        -0.53490
C         46.44084        39.50575        -0.34890
C         47.61400        41.62870        -0.78302
C         46.41085        42.35847        -0.77307
C         47.57510        44.51186        -1.21022
C         46.41045        43.80997        -0.89565
C         47.67606        46.00574        -0.96882
C         46.32405        46.72317        -0.84514
C         46.99198        49.04281        -1.54378
C         46.27266        48.18780        -0.73585
C         46.98182        50.47801        -1.43151
C         46.21291        51.10599        -0.51315
C         50.20725        24.49052         0.65197
C         48.96856        25.16707         0.54577
C         50.20200        27.28033         0.38251
C         48.98737        26.58211         0.46955
C         50.19546        28.69072        -0.16385
C         48.89866        29.42622         0.05773
C         50.17884        31.55903        -0.51116
C         48.92298        30.93438         0.10016
C         50.15957        33.06094        -0.31565
C         48.91385        33.75218        -0.34560
C         50.13115        35.90779        -0.33128
C         48.90098        35.18993        -0.34813
C         50.13186        37.33682        -0.45279
C         48.90479        38.06222        -0.50429
C         50.10316        40.20373        -0.83565
C         48.89327        39.49917        -0.61684
C         50.13630        41.60851        -1.05943
C         48.83123        42.27853        -1.27645
C         50.13721        44.46352        -1.82450
C         48.78938        43.76952        -1.59372
C         50.08246        45.95875        -1.63209
C         48.84082        46.62919        -1.73757
C         50.09506        48.60730        -2.49548
C         48.89273        47.92824        -2.25949
C         51.39763        25.19233         0.73750
C         52.66538        27.35295         0.71699
C         51.43280        26.59985         0.57432
C         52.74643        28.76148         0.16987
C         51.42414        29.51355         0.16559
C         52.72545        31.60448        -0.16344
C         51.42246        30.85562        -0.00849
C         52.61498        33.09348         0.03126
C         51.37910        33.77434        -0.18615
C         52.59939        35.93284        -0.13641
C         51.36506        35.21126        -0.20349
C         52.59907        37.36425        -0.33231
C         51.37948        38.02341        -0.53156
C         52.66410        40.22483        -0.83818
C         51.35796        39.44613        -0.90659
C         52.58823        41.69393        -0.72724
C         51.33634        42.35037        -0.99694
C         52.48534        44.52603        -0.98983
C         51.33944        43.80199        -1.16400
C         52.55715        46.03248        -1.17641
C         51.29622        46.66444        -1.72313
C         51.29090        48.01588        -2.09890
C         54.93023        27.55648         1.63095
C         53.77528        26.80098         1.33391
C         54.97085        28.93592         1.40337
C         53.86311        29.59122         0.76331
C         54.97411        31.76658         1.03866
C         53.86411        30.96387         0.59117
C         54.96119        33.16576         0.85268
C         53.78709        33.82745         0.30624
C         55.13422        35.93834         0.09620
C         53.79441        35.24191         0.13216
C         55.04847        37.44541         0.13151
C         53.84356        38.10988        -0.20765
C         55.02954        40.27335        -0.09107
C         53.85747        39.52291        -0.34419
C         55.01790        41.72120        -0.31313
C         53.76117        42.40007        -0.49903
C         55.00817        44.47142        -1.08928
C         53.75322        43.90514        -0.44343
C         54.95164        45.72489        -1.79486
C         53.80403        46.42770        -1.92633
C         56.08403        29.73259         1.82352
C         56.08483        31.08903         1.64836
C         56.00410        34.01370         1.39093
C         56.05873        35.33975         1.12551
C         56.20499        38.19675         0.36873
C         56.19666        39.58790         0.29174
C         56.20235        42.43669        -0.47603
C         56.18625        43.76790        -0.97196
O         52.15009        39.72420        -2.11690
O         41.80345        42.18819        -1.69176
O         42.51396        33.61307         2.13142
O         38.69722        38.86993        -0.96428
O         45.91128        49.46727         1.39994
O         47.71719        48.58299        -2.64211
O         37.21449        42.16399         2.22500
O         48.57810        42.77626        -2.65451
O         40.20687        27.77550         1.94328
O         44.91751        36.64970        -1.61894
O         53.05962        28.60246        -1.26703
H         53.17622        29.51919        -1.62692
O         38.11794        39.76909         2.44034
H         37.61334        40.40296         3.00192
O         42.59155        39.77148        -2.09308
H         42.01789        40.45240        -2.51774
O         27.54877        41.53153         1.58546
H         27.52608        42.41800         2.00217
O         28.00060        40.48433        -1.88885
H         28.04832        39.59510        -2.29828
O         43.26876        49.96058         2.74609
H         44.21748        49.69141         2.76327
O         44.51846        46.20987         1.76938
H         43.82677        46.54986         2.37810
O         37.71575        36.01662         2.56821
H         37.83929        35.10565         2.91276
O         47.69162        27.48132         2.21575
H         47.59209        26.57964         2.59009
O         29.95823        46.11200         1.91108
H         29.07151        45.69662         1.96844
O         33.03355        44.61399        -1.55471
H         32.22778        45.06379        -1.88816
O         44.29065        38.11464         1.66649
H         43.52400        38.51432         2.12894
O         53.82623        44.27556         0.97616
H         53.66177        45.25223         1.00595
O         50.42831        44.36673        -3.25316
H         49.94353        43.57114        -3.58395
O         48.18262        46.11074         0.42798
H         47.42227        45.97035         1.03491
O         39.21550        46.39634         2.68773
H         38.41383        46.80542         3.07830
O         28.48621        33.29163        -2.68168
H         28.67483        34.23032        -2.89260
O         55.72974        35.62058        -1.21683
H         55.87770        34.65139        -1.23779
O         39.01876        30.68295         2.59140
H         39.27255        31.54138         3.01466
O         27.54187        35.67628         1.49694
H         27.57508        34.70789         1.64727
O         40.07943        31.91279        -0.74744
H         40.02122        31.05065        -1.21028
O         32.63245        35.86300         2.27666
H         32.54723        34.91530         2.51539
O         48.98660        31.28700         1.51023
H         48.28489        30.78968         1.98224
O         50.28692        28.48441        -1.61708
H         51.23421        28.27273        -1.81068
O         50.18865        31.34451        -1.95471
H         51.12057        31.45242        -2.25843
O         35.36481        37.32607        -1.25700
H         35.70533        38.19461        -1.56168
O         47.53554        31.27611        -1.90182
H         48.44000        31.33726        -2.29506
O         40.18735        32.98430         2.75990
H         41.11933        33.04207         3.09284
O         52.70570        46.61752         0.17674
H         51.81735        46.61825         0.59454
O         53.04365        31.42656        -1.62124
H         53.82644        31.98750        -1.81598
H         27.00890        26.94659        -0.95085
H         25.80701        29.11036        -1.10598
H         25.84952        31.57903        -1.25334
H         25.92719        33.57781        -1.69624
H         25.75199        35.77021        -0.73773
H         25.72776        37.61492         0.04502
H         25.69144        40.04555        -0.14445
H         25.76776        42.03377        -0.64228
H         25.95510        44.45791        -0.93296
H         27.29281        46.50257        -1.02990
H         29.10635        25.68800        -0.79545
H         29.35815        47.76269        -0.52145
H         32.85338        23.55197        -0.96107
H         30.75416        24.75466        -0.91852
H         32.92121        49.87520         1.02531
H         30.80393        48.64886         0.87601
H         34.48118        22.65475        -1.21171
H         34.55959        50.81592         0.92822
H         36.57403        21.44808        -1.31323
H         36.65330        52.00796         1.12757
H         40.33426        19.28283        -1.35768
H         38.20701        20.50280        -1.34912
H         40.38611        54.10447         1.70306
H         38.25369        52.89489         1.57605
H         42.78261        19.24275        -1.08000
H         42.82456        54.13173         1.45872
H         44.90261        20.39391        -0.60363
H         44.90659        52.99406         0.74888
H         48.58205        22.46597         0.39066
H         46.50345        21.28408        -0.03404
H         47.61511        51.04858        -2.12435
H         46.18219        52.20359        -0.48397
H         50.23807        23.39434         0.70968
H         50.07116        49.62792        -2.89823
H         52.33356        24.63141         0.86420
H         52.22593        48.59026        -2.14238
H         55.77954        27.06683         2.12842
H         53.75014        25.75451         1.66949
H         55.87064        46.07223        -2.29331
H         53.79374        47.34865        -2.52619
H         56.94310        29.23422         2.29568
H         56.95834        31.66694         1.97774
H         56.74476        33.57617         2.07506
H         56.84815        35.95317         1.58228
H         57.14961        37.68866         0.60649
H         57.12331        40.13964         0.49902
H         57.17196        41.92900        -0.38296
H         57.12619        44.21037        -1.33544
