         280
 CSIRO Nanostructure Databank - Neutral Graphene Oxide Data Set
C        -10.49934         0.43933        -1.81086
C         -9.29297         1.28343        -1.42697
C         -8.80359         0.76478        -0.04988
C         -7.61494         1.50164         0.51557
C         -6.33497         0.78088         0.87203
C         -5.05291         1.53607         0.70140
C         -3.76011         0.81376         0.70250
C         -2.52579         1.49879         1.20639
C         -1.22209         0.76946         1.07358
C          0.00447         1.65116         1.06187
C          1.29678         0.97880         0.74509
C          2.65693         1.65858         0.94156
C          3.75942         0.75506         1.50886
C          5.12102         1.42651         1.63633
C          6.39433         0.61257         1.38495
C          7.60708         1.27400         0.79490
C          8.73149         0.43881         0.19301
C          9.38601         0.90336        -1.11439
C         10.30683        -0.01039        -1.84371
C         -9.55079         2.79582        -1.23641
C         -8.67584         3.57885        -0.56625
C         -7.56222         2.95687         0.20904
C         -6.17915         3.58912         0.07349
C         -5.21665         2.96421         1.17702
C         -3.88275         3.68847         1.41533
C         -2.52442         3.03964         1.08695
C         -1.34695         3.73622         1.80895
C         -0.03593         3.00322         1.75445
C          1.29049         3.72337         1.93585
C          2.57811         2.97222         1.72916
C          3.87471         3.73466         1.54229
C          5.16665         2.92257         1.44992
C          6.43059         3.65609         0.96216
C          7.67236         2.78382         0.42008
C          7.93357         2.94796        -1.07710
C          8.73069         2.01444        -1.75944
C         -8.77841         5.07467        -0.28942
C         -7.39526         5.80131        -0.62984
C         -6.17377         5.11173         0.02453
C         -5.08691         5.85754         0.73597
C         -3.91093         5.17684         1.39327
C         -2.60957         5.96846         1.43832
C         -1.34237         5.26191         1.84133
C         -0.01092         6.02216         1.75948
C          1.36358         5.28228         1.95048
C          2.35896         5.74714         0.81592
C          3.75339         5.12467         1.01690
C          4.83809         5.58348         0.10191
C          6.23669         4.98536         0.19773
C          6.92233         5.21518        -1.12662
C          7.60074         4.12711        -1.74632
C         -7.36564         7.28401        -0.44021
C         -6.52438         8.02112         0.56427
C         -5.17194         7.34590         0.83767
C         -3.86163         8.01920         0.59368
C         -2.56399         7.21749         0.56777
C         -1.42954         8.22138         1.05983
C         -0.06813         7.46388         1.27577
C          1.21169         8.11572         0.77049
C          2.47133         7.28849         0.69402
C          3.68709         7.91892        -0.03935
C          4.75384         6.93709        -0.48883
C          6.02683         7.55265        -1.07774
C          6.81526         6.44219        -1.73145
C         -6.31560         9.48980         0.22414
C         -5.13460        10.05910        -0.06811
C         -3.88927         9.23723        -0.30675
C         -2.55506         9.93968        -0.38373
C         -1.39773         9.36880         0.05313
C         -0.11179         9.89458        -0.36203
C          1.09519         9.33609        -0.08130
C          2.29931         9.88781        -0.84583
C          3.23569         8.74339        -1.27106
C          4.43114         9.23783        -2.06138
C          5.64668         8.67437        -2.02625
C        -10.62302        -0.87731        -1.50541
C         -9.64614        -1.67291        -0.76524
C         -8.30487        -1.05058        -0.47356
C         -7.71507        -1.31913         0.88673
C         -6.33080        -0.70200         1.02516
C         -5.02080        -1.46135         0.88671
C         -3.76690        -0.68466         0.52623
C         -2.45018        -1.36072         0.29475
C         -1.15632        -0.61245         0.46903
C          0.02388        -1.21894         0.13751
C          1.31140        -0.47177         0.31279
C          2.58278        -1.25831         0.41293
C          3.69816        -0.71631         1.25178
C          4.94637        -1.55064         1.31798
C          6.30748        -0.89732         1.39539
C          7.45611        -1.72015         0.93330
C          8.81937        -1.12018         0.53050
C          9.22256        -1.92167        -0.75535
C         10.33445        -1.32187        -1.56922
C         -9.83368        -2.98276        -0.41614
C         -8.78897        -3.81010         0.18427
C         -7.60798        -3.26918         1.00876
C         -6.28985        -3.63586         0.29930
C         -5.00235        -2.94229         0.64833
C         -3.67282        -3.64384         0.37958
C         -2.39741        -2.86779         0.31332
C         -1.19373        -3.46860        -0.37611
C          0.10286        -2.76779         0.03206
C          1.37547        -3.36523        -0.58545
C          2.62094        -2.71766        -0.04710
C          3.77295        -3.56347         0.35606
C          4.86636        -2.97829         0.91067
C          6.07561        -3.76226         1.26905
C          7.36640        -3.08460         0.95591
C          8.45856        -3.93047         0.43808
C          9.39718        -3.36734        -0.37206
C         -8.72893        -5.15763        -0.00339
C         -7.44623        -5.90048         0.35059
C         -6.26890        -5.04421        -0.21128
C         -4.93789        -5.64407        -0.71757
C         -3.67955        -5.11558        -0.02759
C         -2.38677        -5.80435        -0.39460
C         -1.19459        -4.93034        -0.75044
C          0.08812        -5.62235        -1.18510
C          1.44034        -4.81419        -1.15583
C          2.62801        -5.65047        -0.61299
C          3.52688        -5.07346         0.48609
C          4.78854        -5.90153         0.65659
C          6.00965        -5.24767         1.16629
C          7.28564        -6.00020         1.05690
C          8.43340        -5.36694         0.72207
C         -7.42915        -7.35200        -0.03656
C         -6.27532        -7.98416        -0.63959
C         -5.01406        -7.15557        -0.92859
C         -3.72167        -7.89159        -1.17599
C         -2.35976        -7.32102        -0.74349
C         -1.26028        -7.89997        -1.69478
C          0.07937        -7.10490        -1.52045
C          1.38811        -7.86238        -1.35764
C          2.58998        -7.14873        -0.76211
C          3.61086        -7.94111        -0.03903
C          4.78328        -7.27026         0.43082
C          6.05610        -8.10651         0.54605
C          7.14946        -7.45605         1.40609
C         -6.10120        -9.45245        -0.52649
C         -4.94902       -10.09824        -0.80315
C         -3.71948        -9.40180        -1.23955
C         -2.38621       -10.06346        -1.15314
C         -1.22732        -9.39855        -1.37274
C          0.06054       -10.18581        -1.38722
C          1.34268        -9.36367        -1.22260
C          2.42217       -10.03813        -0.47878
C          3.50744        -9.36333         0.04413
C          4.57234       -10.09557         0.73429
C          5.75247        -9.51353         1.00583
O          6.75292        -7.56689         2.77859
H          7.05412        -6.77121         3.26409
O          3.33300        -6.26687        -1.71482
O         -6.32756         0.15765         2.20486
O         -4.71055        -5.12098        -2.04774
H         -5.41535        -5.47741        -2.63394
O         -1.61332        -7.81102        -3.06548
H         -1.29997        -6.94625        -3.41876
O         -1.48445        -3.85763        -1.72923
O         -4.05597         8.64364        -1.65920
H         -4.02976         9.37634        -2.31167
O         -7.43251        -0.97475        -1.42770
O          5.64965        -1.41374         2.58838
O         -3.27859        -0.94570        -0.83693
O          2.29705        -0.45518        -0.77646
O          9.68099        -1.16899         1.56226
O          6.93328         4.44538         2.10797
H          8.77791         3.10173         2.01151
O         -4.47307         8.02765         1.90897
O          2.45305         7.87511        -2.12125
H          3.04711         7.18229        -2.48300
O         -4.97782         5.54108        -0.72314
O          5.31817         2.29830         2.76832
O          2.99763        10.89124        -0.11603
H          3.63070        10.44614         0.49430
O         -8.04595         2.48739         1.51499
O          0.55073         1.74335        -0.28665
O          8.02368        -1.81803        -1.60258
H          8.15216        -2.40531        -2.37740
O          2.23982        -2.62716        -1.45755
O         -0.00157         7.14127         2.68356
O         -2.77830        -3.47724         1.55565
O         -9.11994         5.26267         1.07248
H         -8.77748         4.51958         1.61308
O          4.29849         5.77720        -1.26931
O         -5.96379        -7.41602        -1.99293
O         -6.59971        -3.92279        -1.08601
O          4.35788         8.80363         0.89239
H          3.82230         8.78970         1.72899
O          5.89996        -4.55966         2.49074
O          1.76049        -8.71231        -2.48109
O          1.99948         3.04764         3.03559
O         -4.02433         4.45132         2.64707
O         -4.95117        -2.39529         1.99854
O          4.10981         4.89204         2.39144
O         -1.84423         8.75833         2.24686
O         -0.84692         3.04726         2.96833
O         -1.94873         0.82779         2.34806
O          6.61030        -8.19222        -0.79404
H          5.92167        -8.56187        -1.38639
O          6.92404         5.68450         1.30944
O         -9.84663         0.71843         0.81423
H         -9.53969         0.84675         1.73824
O         -7.27168         5.56283        -2.05226
H         -6.37007         5.84862        -2.31816
O          1.74321        -4.56793        -2.53262
H          2.15413        -5.37862        -2.90874
O         -7.25303        -5.98759         1.78702
H         -7.54697        -5.14179         2.22643
O         -4.29638         1.42048        -0.52920
O         -7.21786         7.97879         1.84652
H         -6.58378         8.31199         2.52040
O          9.93296         1.17898         0.23579
O         -2.93270        -5.80878         0.98816
O          8.83024         3.31433         1.05449
O          1.79120         5.24803        -0.40840
H          2.45531         5.38612        -1.12787
O          0.02978        -6.10531        -2.56610
O         -3.80913        -8.58001        -2.44435
O          7.49404         1.08279         2.22686
O          3.31039        -0.14887         2.54561
O          2.74365        -5.20273         1.70892
H          3.31554        -4.93827         2.46340
O         -2.16655         5.97105         2.80928
O         -7.66044        -3.43142         2.27634
O          2.20264         8.09189         1.87087
O         -8.29625         1.20847        -2.43126
H         -7.91104         0.28675        -2.43874
O         -5.77693         3.16575        -1.23522
H         -5.12246         3.81318        -1.58181
O          0.26360        -3.15518         1.43589
H         -0.59447        -3.07174         1.90986
O         -8.52020        -1.02678         1.95454
H         -7.94166        -0.80533         2.72276
O          0.00849       -11.19904        -0.37403
H         -0.31456       -10.79418         0.45717
O          6.83683         8.10796        -0.02409
H          6.24294         8.63501         0.55990
O         -5.90056         2.92054         2.42432
H         -5.45299         3.53897         3.05135
O         -2.30650         3.30822        -0.31753
H         -2.94949         2.76617        -0.83883
O         -1.99851        -7.97573         0.51008
H         -2.46029        -7.50580         1.24474
O          1.87478         5.64154         3.21347
H          1.49978         6.52216         3.45720
O         -2.25872         6.78316        -0.75432
H         -2.77499         7.32932        -1.39869
O          3.14975         2.05630        -0.36680
H          2.38464         2.04832        -0.98834
H         11.08697        -1.97976        -2.03089
H         11.05666         0.45359        -2.50223
H          8.85665         2.13337        -2.84698
H          7.95137         4.25818        -2.78201
H          7.31742         6.62226        -2.69439
H          6.45412         9.09074        -2.64909
H          4.24738        10.08327        -2.74359
H          1.90580        10.37749        -1.77546
H         -0.13727        10.75697        -1.04925
H         -2.50247        10.82657        -1.03834
H         -5.07951        11.14643        -0.23482
H         -7.20560        10.12946         0.33239
H         -7.86917         7.87435        -1.22143
H         -9.56401         5.55103        -0.92596
H        -10.41416         3.23951        -1.75824
H        -11.29101         0.92084        -2.40549
H        -11.53029        -1.40762        -1.83844
H        -10.76640        -3.49184        -0.71235
H         -9.51168        -5.68544        -0.57037
H         -8.12746        -7.99659         0.52045
H         -6.96714       -10.02390        -0.15935
H         -4.89156       -11.18678        -0.64949
H         -2.35706       -11.14618        -0.95266
H          0.14236       -10.72317        -2.36873
H          2.33904       -11.12564        -0.33967
H          4.38217       -11.14559         1.00187
H          6.55475       -10.08080         1.49952
H          8.12183        -7.99911         1.23669
H          9.36676        -5.93838         0.60109
H         10.21381        -3.96692        -0.80247
