         281
 CSIRO Nanostructure Databank - Neutral Graphene Oxide Data Set
C        -11.19425         0.62258         0.15327
C         -9.97955         1.45232         0.52183
C         -8.73146         0.67293         0.13881
C         -7.43091         1.41378        -0.03778
C         -6.16851         0.73797         0.38365
C         -4.91752         1.53897         0.71883
C         -3.71483         0.76792         0.16363
C         -2.54180         1.42390        -0.49898
C         -1.20767         0.75859        -0.26719
C          0.07848         1.33899        -0.86942
C          1.38073         0.77773        -0.24611
C          2.53898         1.50097        -0.24614
C          3.85768         0.83004         0.15904
C          5.10747         1.49258        -0.42297
C          6.44593         0.70956        -0.38385
C          7.64681         1.51257         0.05899
C          8.87214         0.78948         0.09471
C         10.08846         1.54195         0.05578
C         11.33036         0.82338        -0.20669
C         -9.95314         2.90882         0.11082
C         -8.80392         3.61751        -0.07557
C         -7.47198         2.92664        -0.33922
C         -6.27020         3.71991         0.23569
C         -4.93191         3.01093         0.29963
C         -3.71881         3.67762        -0.25542
C         -2.53596         2.90714        -0.85216
C         -1.20624         3.59797        -0.55623
C          0.08093         2.86522        -0.72372
C          1.34963         3.54673        -1.24210
C          2.54786         2.99523        -0.46570
C          3.82841         3.78222        -0.44974
C          5.11265         2.99430        -0.38373
C          6.29990         3.56714         0.32135
C          7.61633         2.90112         0.13665
C          8.83017         3.67106         0.16990
C         10.05673         2.94030         0.12111
C         -8.79270         5.08051        -0.18330
C         -7.65249         5.82548        -0.25252
C         -6.32039         5.16631        -0.11361
C         -5.11783         5.84167        -0.70995
C         -3.82972         5.08806        -0.77427
C         -2.53430         5.83916        -0.63177
C         -1.22945         5.10168        -0.62725
C         -0.00809         5.83365        -1.11406
C          1.30648         5.09887        -1.31797
C          2.59638         5.89515        -1.30019
C          3.92225         5.14394        -1.14548
C          5.23676         5.91758        -1.26190
C          6.65250         5.31194        -1.21123
C          7.66431         5.88951        -0.26107
C          8.79309         5.08918         0.15382
C         -7.62399         7.30654         0.10743
C         -6.35155         8.06388        -0.31704
C         -5.12921         7.34557        -0.80897
C         -3.81115         8.08224        -0.91537
C         -2.53037         7.32632        -0.88266
C         -1.25445         7.93980        -0.29547
C         -0.03122         7.32834        -0.98719
C          1.25446         8.10776        -0.94074
C          2.57428         7.40923        -1.16046
C          3.88069         8.14658        -0.94039
C          5.20034         7.43216        -1.07098
C          6.48581         8.12401        -0.54912
C          7.51466         7.20692         0.07568
C         -6.09397         9.39264         0.30882
C         -4.92142        10.04287         0.20901
C         -3.80225         9.60439        -0.71555
C         -2.43089        10.15180        -0.32061
C         -1.26424         9.45883        -0.28879
C          0.04234        10.03347         0.05483
C          1.21625         9.38533        -0.17573
C          2.51392         9.75589         0.51012
C          3.77628         9.56700        -0.35442
C          4.99923         9.90482         0.47471
C          6.16859         9.26281         0.40257
C        -11.21385        -0.69877         0.40381
C        -10.04300        -1.41788         1.06073
C         -8.73527        -0.74239         0.61642
C         -7.50245        -1.33643         1.23033
C         -6.19556        -0.60473         1.09507
C         -4.86750        -1.34056         1.11173
C         -3.60537        -0.63674         0.71930
C         -2.49255        -1.50832         0.13379
C         -1.21302        -0.68191         0.10204
C          0.09295        -1.43270         0.15079
C          1.37710        -0.67047         0.15453
C          2.69744        -1.45231         0.21910
C          3.89649        -0.64299        -0.19772
C          5.18183        -1.39842        -0.13977
C          6.39884        -0.64497         0.33702
C          7.69631        -1.40815         0.11880
C          8.87226        -0.66209         0.10627
C         10.19302        -1.33936         0.09090
C         11.36828        -0.52509        -0.29605
C         -9.90446        -2.88386         0.67425
C         -8.72446        -3.57425         0.88800
C         -7.64326        -2.80456         1.61887
C         -5.89013        -3.44887         0.07028
C         -4.86873        -2.85289         1.00128
C         -3.56260        -3.61230         1.09465
C         -2.28556        -2.83725         0.89213
C         -0.99717        -3.59183         0.69519
C         -0.00519        -2.89551        -0.24272
C          1.36433        -3.56180        -0.47903
C          2.65766        -2.81032        -0.48657
C          4.01182        -3.50927        -0.77135
C          5.14446        -2.90643         0.10118
C          6.48935        -3.57942        -0.11013
C          7.65890        -2.86451         0.04456
C          8.93944        -3.64775         0.30948
C         10.22797        -2.83252         0.12988
C         -8.53430        -4.97052         0.60626
C         -7.30511        -5.66000         0.35437
C         -6.04588        -4.95327        -0.16180
C         -4.82045        -5.73860         0.27811
C         -3.56485        -5.08910         0.75712
C         -2.26175        -5.74433         0.27130
C         -0.95320        -5.12404         0.83357
C          0.17719        -5.79184         0.02344
C          1.36291        -5.06120        -0.53768
C          2.69022        -5.78931        -0.59593
C          3.98241        -5.03413        -0.64596
C          5.30908        -5.66784        -1.10141
C          6.44403        -5.10453        -0.13933
C          7.77940        -5.74948        -0.43171
C          8.94505        -4.98636        -0.37447
C         -7.24263        -7.04793         0.29818
C         -6.08723        -7.87839        -0.26515
C         -4.76384        -7.10998        -0.33318
C         -3.47169        -7.85707        -0.38374
C         -2.35234        -7.29655         0.52870
C         -0.96363        -8.11005         0.55805
C          0.31801        -7.26736         0.29488
C          1.53004        -7.97562        -0.20352
C          2.60267        -7.24440        -1.04048
C          3.95421        -7.98249        -0.98516
C          5.26749        -7.21086        -1.08154
C          6.55273        -7.92926        -0.75202
C          7.79189        -7.13983        -0.60449
C         -5.83050        -9.17308         0.50401
C         -4.66795        -9.84439         0.41602
C         -3.58182        -9.38011        -0.55480
C         -2.21315       -10.02947        -0.51558
C         -1.02805        -9.39748        -0.27359
C          0.25615       -10.09624        -0.40284
C          1.45448        -9.45983        -0.33524
C          2.75495       -10.17451        -0.04907
C          3.99976        -9.42333        -0.53093
C          5.30113        -9.95205        -0.05040
C          6.46608        -9.28682        -0.17417
O          0.04826         0.92078        -2.23863
H          0.67787         1.48182        -2.75459
O          6.26797        -0.46648         1.75967
H          7.09466        -0.07462         2.10981
O         -4.40898        -3.42090         2.25264
O          1.51547         3.07330        -2.59759
H          1.90081         3.82241        -3.12380
O          5.14100         2.25510        -1.65375
O          5.61595        -5.27913        -2.43356
H          6.03247        -6.05436        -2.87940
O         -8.81940        -0.43492        -0.80323
O          0.28687        -5.52597        -1.40656
O          1.87563        -2.89427        -1.69951
O         -3.98572        -7.16360        -1.57353
O          4.89570        -3.13360         1.49686
O          4.00331         0.96048         1.58853
H          3.67690         0.12606         2.00772
O          2.18073        -7.23059        -2.41163
H          2.51953        -8.05397        -2.83262
O         -1.17010         0.36793         1.12354
O          1.43488        -7.55930         1.19608
O          0.69252        -1.05498         1.41169
O         -4.48429        -5.76240         1.67507
O          4.59479         5.30551        -2.41821
O         -0.40995         3.20686         0.60027
O         -4.85522         1.52642         2.14820
H         -4.19796         2.19723         2.43985
O         -4.08736        10.20709        -2.00089
H         -3.70657         9.61584        -2.68881
O         -6.55011         0.72334        -0.99669
O         -1.22401         7.58819         1.06412
O          3.94698        -9.08575        -1.95122
O         -0.33035         6.69676        -2.25284
O          2.83890       -10.32604         1.37814
H          2.31689        -9.60688         1.79907
O          2.95155         3.78430         0.70356
O         -3.55310         0.72946        -1.30152
O        -10.15838        -1.32317         2.49249
H        -10.06786        -0.36641         2.72280
O         -2.93723        -1.90072        -1.17642
H         -3.12478        -1.08373        -1.69945
O          6.97104         4.47733        -2.03901
O          5.99171        -5.57858         1.21426
H          4.99663        -4.09746         1.69006
O          4.64919         8.15833        -2.20364
O         -1.84974         5.57970         0.62497
O          1.89214         8.11891        -2.24622
O         -6.94572        -0.54833         2.33337
O          1.95313         5.50949        -2.55248
O          3.48246        -5.56373         0.61384
O         -6.32187         4.70324         1.31601
O         10.53043        -2.10238         1.34571
O         -3.93196         3.67087         1.17169
O         -3.91547        -0.85619         2.10345
O          8.87938        -3.97306         1.74567
H          9.35089        -3.23785         2.21173
O          2.97908        -1.67797         1.62129
H          2.11938        -1.79291         2.09660
O         -7.33428         3.07839        -1.73103
O          4.60655        -0.95391        -1.40510
O         -4.07139        -9.69026        -1.87506
H         -4.94883        -9.24695        -1.98992
O         -3.04697         7.75402        -2.14729
O         -4.61996         5.23560        -1.96459
O         -1.28228        -2.88907         1.93755
O         -2.17679        -5.39568        -1.11906
H         -2.88509        -5.86502        -1.63137
O         -7.03775        -3.30173         2.54426
O          4.34522        -3.23455        -2.13247
H          3.51042        -3.19414        -2.65082
O         -6.10561         7.91197        -1.74460
O          2.65538         8.86026         1.62547
H          1.85057         8.91623         2.18224
O          6.07335        -7.76985        -2.16244
O         -0.81472        -8.71934         1.80125
O         -9.92544         1.47501         1.99940
H        -10.60623         2.10552         2.31802
O          3.68028        10.50405        -1.44025
H          4.06858        10.07951        -2.23765
O         -0.62723        -2.89249        -1.54114
H         -0.67925        -3.82827        -1.85471
O          6.79210         0.37368        -1.74848
H          6.46709         1.10300        -2.32649
O         -6.40706        -2.70306        -0.76041
H         -6.46728        -4.24291        -1.95574
O         -7.75349         7.37638         1.53842
H         -7.27204         6.61596         1.93217
O          6.11777         4.43552         1.17569
O         -2.65833         3.01483        -2.28261
H         -3.36678         2.40035        -2.58071
O         -2.89100        -7.49168         1.83235
H         -2.18857        -7.95679         2.36942
O          7.15280         8.69724        -1.70483
H          6.44658         8.92835        -2.35256
O         -6.12255        -5.09955        -1.60295
O          7.12169        -6.06058         1.97193
H          7.68264        -5.24307         2.11524
O         -6.49215        -8.22232        -1.61846
H         -6.41917        -7.39936        -2.15312
O         -0.75052        -5.46623         2.19689
H         -1.14962        -4.76140         2.75566
H         12.31171        -1.04689        -0.51219
H         12.23672         1.41617        -0.39907
H         11.00321         3.49786         0.05510
H          9.71875         5.62826         0.41414
H          8.24538         7.67861         0.75245
H          7.01177         9.61746         1.01652
H          4.90267        10.76560         1.15501
H          2.47264        10.81927         0.87386
H          0.05606        10.99850         0.58854
H         -2.38608        11.25048        -0.23591
H         -4.79386        11.00407         0.73014
H         -6.88654         9.79344         0.95872
H         -8.50553         7.83930        -0.33236
H         -9.76527         5.59395        -0.11052
H        -10.90553         3.45972         0.19708
H        -12.06589         1.11610        -0.30373
H        -12.11089        -1.28906         0.15821
H        -10.72867        -3.37129         0.12636
H         -9.44658        -5.59216         0.57205
H         -8.14516        -7.61927         0.57409
H         -6.63471        -9.54888         1.15570
H         -4.52933       -10.77809         0.98196
H         -2.16999       -11.02570        -0.98740
H          0.23295       -11.19513        -0.49129
H          2.76210       -11.20026        -0.50426
H          5.28250       -10.92576         0.46066
H          7.39043        -9.71878         0.23767
H          8.75509        -7.67123        -0.65512
H          9.91306        -5.46527        -0.59275
H         11.10478        -3.36537        -0.30278
