         324
 CSIRO Nanostructure Databank - Neutral Graphene Oxide Data Set
C         30.34669        57.16766        -1.00862
C         30.39199        58.56029        -0.89612
C         29.36518        59.32204        -1.51993
C         30.34197        61.45053        -0.82736
C         29.30124        60.70812        -1.40063
C         32.90753        52.96570        -0.07592
C         32.84329        54.37789         0.05180
C         31.71905        55.05269        -0.62387
C         32.74430        57.34577         0.71404
C         31.16014        56.24737        -0.24947
C         32.73282        58.56156         0.08676
C         31.41735        59.33365        -0.04836
C         32.64668        61.66202        -0.13483
C         31.54081        60.83087        -0.40493
C         35.32938        48.64331         0.19856
C         35.28730        50.05962         0.32988
C         34.09857        50.79925         0.11260
C         35.24147        52.89327         0.68499
C         34.06301        52.20658         0.27062
C         35.18072        54.34084         1.10958
C         33.91185        55.05903         0.67707
C         35.26618        57.24837         0.72888
C         33.94531        56.51323         0.90010
C         35.22068        58.60778         0.15911
C         34.00870        59.07989        -0.31368
C         35.22896        61.59807         0.19227
C         34.00196        61.21612        -0.30572
C         37.84780        44.36429         0.17817
C         37.76172        45.75399         0.38686
C         36.60369        46.49556         0.14614
C         37.74093        48.65253         0.56994
C         36.53813        47.92897         0.32180
C         37.73275        50.05815         0.72135
C         36.49774        50.77425         0.61941
C         37.70293        52.92953         0.87883
C         36.46583        52.19781         0.75949
C         37.68030        54.36975         0.69117
C         36.45663        55.08117         0.68963
C         37.66751        57.16942         0.09467
C         36.48826        56.46867         0.47354
C         37.66536        58.63371        -0.03781
C         36.43942        59.35998        -0.01571
C         37.69099        61.45361         0.08155
C         36.44496        60.80391         0.01334
C         40.28105        40.10544        -0.10327
C         40.27129        41.48989         0.19390
C         39.08474        42.23460         0.11951
C         40.28344        44.30959         0.67002
C         39.05637        43.63524         0.34865
C         40.27448        45.73497         0.87105
C         38.94121        46.46215         1.01538
C         40.21068        48.63345         1.06282
C         39.04119        47.89076         0.46195
C         40.22518        50.11140         0.92890
C         38.95328        50.80171         0.92261
C         40.17921        52.96557         1.10513
C         38.91418        52.21397         0.96698
C         40.15387        54.41998         0.73039
C         38.87578        55.08695         0.41490
C         40.16055        57.08838        -0.46858
C         38.87727        56.44456         0.04313
C         40.12675        58.61895        -0.48758
C         38.87853        59.33586        -0.16650
C         40.17645        61.45242         0.04688
C         38.91855        60.75756        -0.03710
C         42.66914        35.94797        -1.02478
C         42.70477        37.27268        -0.61845
C         41.48655        38.01237        -0.46070
C         42.69198        39.94410         0.58317
C         41.46134        39.34123        -0.04888
C         42.72782        41.45505         0.52729
C         41.53065        42.16626         0.47568
C         42.74841        44.25717         0.92362
C         41.52350        43.59262         0.68809
C         42.73629        45.68781         1.38232
C         41.45840        46.41231         1.05688
C         42.77152        48.58257         1.00560
C         41.48840        47.88092         1.24111
C         42.65547        49.98090         0.44657
C         41.43895        50.74961         0.92338
C         42.75312        52.92235         0.74481
C         41.48632        52.21068         1.08112
C         42.67522        54.33408         0.25182
C         41.40270        55.08687         0.25768
C         42.68445        57.28781        -0.03085
C         41.37738        56.60096         0.36544
C         42.69637        58.61984        -0.25616
C         41.42196        59.37428        -0.40145
C         42.66959        61.46049         0.09833
C         41.41232        60.81149        -0.05187
C         45.16243        33.18586        -1.80505
C         43.95270        33.80606        -1.61944
C         45.22000        36.00930        -1.32152
C         43.86757        35.25917        -1.50180
C         45.17933        37.27094        -0.57927
C         43.97928        37.93794        -0.33762
C         45.17678        39.98591         0.35972
C         43.98396        39.28787         0.16150
C         45.18436        41.39590         0.63024
C         43.98291        42.13104         0.69849
C         45.21030        44.30130         0.99804
C         43.99102        43.56813         0.89130
C         45.18876        45.73601         0.95721
C         43.99575        46.44023         1.03177
C         45.18860        48.58378         0.49802
C         43.95650        47.87891         0.87530
C         45.13710        50.01457         0.27937
C         43.96600        50.72372         0.41509
C         45.14098        52.87608         0.19293
C         43.97858        52.17196         0.37166
C         45.20022        54.33793         0.37405
C         43.93593        55.12006         0.33801
C         45.22507        57.23193         0.03381
C         43.95217        56.49416        -0.29894
C         45.21009        58.65195        -0.02400
C         43.97997        59.37340        -0.54788
C         45.12300        61.49298         0.16019
C         43.91279        60.81383        -0.06179
C         46.40418        33.87498        -1.70277
C         47.69124        35.88764        -1.05018
C         46.46625        35.21738        -1.33685
C         47.72142        37.18823        -0.54015
C         46.45031        37.80379        -0.08358
C         47.71950        40.01085         0.25009
C         46.45754        39.25239         0.38673
C         47.71414        41.36599         0.42092
C         46.47934        42.06426         0.86203
C         47.80965        44.34623         0.97883
C         46.49299        43.56828         1.09128
C         47.56838        45.68418         0.23891
C         46.49593        46.50344         0.96675
C         47.65971        48.63448         0.24772
C         46.40098        47.91834         0.43617
C         47.66918        50.02897         0.09730
C         46.36506        50.66902        -0.31693
C         47.66785        52.93847        -0.08270
C         46.37915        52.18965        -0.22194
C         47.66172        54.38570         0.23317
C         46.46520        55.07304         0.20344
C         47.66034        57.19814         0.45706
C         46.42203        56.51126         0.23757
C         47.57192        58.64820         0.68905
C         46.36160        59.37238         0.27230
C         47.60928        61.51018         0.31024
C         46.38150        60.81958         0.24165
C         48.92186        37.92195        -0.39931
C         50.17797        40.00033        -0.04236
C         48.95350        39.29193        -0.07304
C         50.21921        41.40595         0.04975
C         48.90411        42.14759        -0.07421
C         50.16253        44.24490         0.21775
C         48.97969        43.57954         0.36965
C         50.16814        45.71862         0.08383
C         48.87259        46.46003         0.04367
C         50.12912        48.60887         0.17499
C         48.90243        47.92814         0.22938
C         50.14268        50.04527         0.17326
C         48.89974        50.75650         0.11328
C         50.11888        52.91077         0.21075
C         48.92093        52.18452         0.08742
C         50.11168        54.36070         0.26064
C         48.91608        55.08222         0.31998
C         50.13500        57.26055         0.62593
C         48.88714        56.52371         0.48114
C         50.11965        58.64644         0.70906
C         48.87333        59.41736         0.80555
C         50.09063        61.50745         0.28055
C         48.87095        60.85916         0.45490
C         51.41925        42.12317         0.07132
C         52.62138        44.29357         0.18478
C         51.44246        43.55246         0.10704
C         52.64182        45.73394         0.28374
C         51.42097        46.46263         0.24654
C         52.62363        48.57222         0.21585
C         51.39838        47.87539         0.20236
C         52.67820        50.04282        -0.08673
C         51.36639        50.77779         0.16408
C         52.60371        52.92744         0.29647
C         51.35370        52.17881         0.24609
C         52.62864        54.33880         0.30615
C         51.38444        55.12743         0.00466
C         52.61015        57.20016         0.68131
C         51.40231        56.54781         0.53530
C         52.65169        58.65756         0.98246
C         51.35949        59.41916         0.88228
C         52.54719        61.49312         0.21575
C         51.36454        60.84974         0.46275
C         53.84894        46.45985         0.37237
C         55.10283        48.59514         0.44489
C         53.85103        47.87121         0.34816
C         55.23320        49.97034         0.50359
C         53.84904        50.74781         0.63046
C         54.96525        52.95186        -0.05325
C         53.81857        52.21084         0.20498
C         55.06770        54.30739         0.28033
C         53.85612        55.02770         0.43435
C         55.07881        57.13962         0.44651
C         53.87485        56.47898         0.53460
C         55.15119        58.61489         0.47223
C         53.94024        59.41719         0.78933
C         54.82386        61.17027        -0.81276
C         53.93182        60.91983         0.43385
C         56.50687        50.56198         0.83129
C         57.84507        52.78537         0.77320
C         56.87135        51.85252         0.40022
C         57.71813        54.19636         0.43658
C         56.39258        54.90855         0.54088
C         57.59957        57.13594         0.13371
C         56.37707        56.43672         0.55016
C         57.53010        58.50133        -0.27386
C         56.31413        59.23714        -0.18928
C         57.34385        61.16257        -1.23200
C         56.20632        60.54299        -0.70844
C         58.84737        54.98814         0.31825
C         59.97675        57.08279        -0.40080
C         58.81644        56.40951         0.03535
C         59.93375        58.43809        -0.81971
C         58.69230        59.14811        -0.78157
C         59.78315        61.12695        -1.72220
C         58.60585        60.49797        -1.23945
C         61.08508        59.11597        -1.30295
C         60.99678        60.43719        -1.74161
O         34.72360        57.00393         2.07953
O         51.96804        59.10825         2.19363
O         31.53281        56.73503         1.04402
O         53.70554        50.69709         1.99270
O         42.39164        52.69845         2.14318
O         56.43522        55.66265         1.80004
O         34.03932        60.12271        -1.22543
O         47.01356        52.75279        -1.42995
O         48.08732        59.08709         1.99942
O         40.17784        54.00269         2.13830
O         46.55938        42.64117         2.23339
O         49.51145        46.08551        -1.23179
O         44.52188        36.00557        -2.59459
O         41.93197        54.53403        -0.99955
O         44.55512        54.89935         1.62494
O         54.90412        59.14755         1.85985
O         40.65324        48.28180         2.42546
O         46.46649        38.14858         1.34752
O         56.05686        52.32411        -0.64565
O         40.76913        59.13104        -1.71404
O         46.22973        50.34305        -1.74210
H         46.69411        51.06662        -2.22825
O         44.12612        59.41786        -1.99696
H         44.14171        58.48406        -2.30834
O         38.64946        46.51283         2.43022
H         39.34749        47.07438         2.85213
O         42.56439        39.61634         2.01797
H         43.38833        39.91293         2.46125
O         41.09291        56.95078         1.73609
H         41.64647        56.40722         2.33577
O         54.51952        61.65680         1.52345
H         54.87856        60.99097         2.15846
O         42.74683        45.62824         2.86843
H         41.92455        45.17171         3.14928
O         46.88567        46.68271         2.35255
H         46.11635        47.04695         2.83854
O         30.84979        59.40049         1.29046
H         30.70121        58.47222         1.58568
O         52.94040        50.15687        -1.52009
H         52.22459        49.68744        -1.99826
O         35.18517        54.33322         2.57547
H         35.12604        55.27803         2.85816
O         42.33655        49.75901        -0.99361
H         43.15905        49.44621        -1.43186
O         43.95338        56.27832        -1.74764
H         43.14949        55.73817        -1.95201
O         47.02706        45.37676        -1.05696
H         47.78802        45.34366        -1.68421
O         39.33367        47.75240        -0.95905
H         39.47824        48.64716        -1.33338
O         40.32944        56.62079        -1.81798
H         40.65183        57.39101        -2.34668
O         54.15037        60.57334        -1.93239
H         54.70089        60.70224        -2.73171
O         48.65739        42.25209        -1.53541
H         49.43504        42.70547        -1.92754
O         51.40184        55.30655        -1.47123
H         51.38584        54.41109        -1.87266
O         48.26612        44.62811         2.31817
H         47.93399        43.90180         2.89361
H         29.63210        56.74119        -1.73198
H         28.56978        58.78767        -2.06046
H         30.30479        62.54913        -0.88284
H         28.44242        61.24207        -1.83165
H         32.04426        52.43823        -0.50707
H         31.37100        54.58355        -1.55687
H         32.45603        62.74417        -0.03257
H         34.39815        48.09937        -0.01939
H         33.18277        50.27013        -0.19043
H         35.31107        62.52262         0.78277
H         36.95824        43.82047        -0.17722
H         35.69687        45.97573        -0.20165
H         37.71409        62.54770         0.19498
H         39.35066        39.62974        -0.45041
H         38.14604        41.71895        -0.13344
H         40.15082        62.53711         0.23396
H         41.70454        35.41899        -1.06466
H         40.54807        37.53699        -0.78666
H         42.67215        62.52691         0.37639
H         45.18855        32.09577        -1.94708
H         43.03103        33.21341        -1.52627
H         45.09584        62.57685         0.35544
H         47.33668        33.29821        -1.78399
H         48.63910        35.37505        -1.27497
H         47.60180        62.60462         0.19008
H         49.86932        37.42586        -0.66016
H         51.12112        39.43862        -0.12515
H         50.09809        62.57004        -0.00804
H         52.37354        41.57432         0.07956
H         53.58599        43.76369         0.18075
H         52.51532        62.54971        -0.09531
H         54.80489        45.91869         0.43621
H         56.02100        47.98400         0.39584
H         54.92307        62.27873        -0.97923
H         57.15140        50.03408         1.55446
H         58.73032        52.47415         1.34948
H         57.27462        62.18412        -1.63633
H         59.83484        54.50120         0.32345
H         60.92799        56.53339        -0.46284
H         59.73376        62.16595        -2.07807
H         62.04948        58.58896        -1.33140
H         61.89865        60.94361        -2.11370
