         276
 CSIRO Nanostructure Databank - Neutral Graphene Oxide Data Set
C        -11.25464         0.63296         0.48965
C        -10.02991         1.44074         0.42663
C         -8.80535         0.74432         0.34830
C         -7.62428         1.49570        -0.19632
C         -6.32293         0.75481        -0.14176
C         -5.13596         1.44062        -0.63438
C         -3.80604         0.78964        -0.41185
C         -2.54403         1.52838        -0.68030
C         -1.35783         0.68921        -1.07907
C         -0.03107         1.40988        -1.18281
C          1.14562         0.59954        -0.64004
C          2.48665         1.33075        -0.66692
C          3.76358         0.59564        -0.88896
C          5.06196         1.32699        -1.03107
C          6.22199         0.62443        -0.52415
C          7.58291         1.25609        -0.69300
C          8.56239         0.70106         0.38173
C          9.98688         1.28621         0.16538
C         11.00193         0.54671         1.00695
C        -10.01854         2.84739         0.47213
C         -8.76195         3.59088         0.88611
C         -7.48644         2.89541         0.40152
C         -6.29190         3.66085        -0.04074
C         -5.15568         2.96257        -0.74144
C         -3.88291         3.76575        -0.84229
C         -2.51710         2.99119        -1.02313
C         -1.26127         3.65088        -0.77965
C         -0.01500         2.88365        -0.89868
C          1.23171         3.51581        -0.30118
C          2.49960         2.80944        -0.73645
C          3.70745         3.48042        -0.73116
C          5.03163         2.84078        -0.96065
C          6.30484         3.59077        -0.62287
C          7.59427         2.81063        -0.56241
C          8.77664         3.47539         0.07003
C          9.88634         2.78408         0.40526
C         -8.69663         5.09896         0.68292
C         -7.53693         5.79775         0.44428
C         -6.33605         5.16105        -0.22745
C         -4.99705         5.77290         0.16366
C         -3.83070         5.09972        -0.24801
C         -2.44459         5.57770         0.20454
C         -1.28577         5.16273        -0.74167
C          0.00969         5.81630        -0.18594
C          1.25003         5.00568        -0.61467
C          2.48818         5.56346        -0.78459
C          3.73704         4.89837        -0.57381
C          4.80019         5.47620         0.27121
C          6.18333         4.83049         0.24616
C          7.46516         5.62208         0.67180
C          8.74682         5.00456         0.04516
C         -7.42164         7.22206         0.63937
C         -6.18368         7.86870         0.74021
C         -4.97183         7.08700         0.69501
C         -3.64706         7.49597         1.32167
C         -2.50487         7.10369         0.38359
C         -1.41913         8.02717        -0.13280
C         -0.03715         7.39321        -0.45882
C          1.01275         8.13071         0.44713
C          2.33387         7.51679         0.13696
C          3.37793         7.45956         1.06753
C          4.55311         6.72929         1.00405
C          6.39777         7.90377         0.92180
C          7.34076         7.12224         0.32431
C         -6.19867         9.33403         0.77995
C         -5.15830        10.20411         0.66539
C         -3.75494         9.79555         0.74608
C         -2.71337        10.28992         0.03440
C         -1.37906         9.59850        -0.25653
C         -0.12142        10.30002         0.25227
C          1.06797         9.65716         0.36157
C          2.40545        10.27483         0.49805
C          3.52204         9.69115         1.06101
C          4.89987        10.03754         0.69944
C          6.05891         9.30073         0.62048
C        -11.26572        -0.72246         0.39620
C        -10.03629        -1.51043         0.14143
C         -8.76566        -0.71901         0.21266
C         -7.50869        -1.38681         0.65425
C         -6.23193        -0.59138         0.40368
C         -4.99623        -1.39183         0.14499
C         -3.76488        -0.71380        -0.30911
C         -2.43841        -1.34799         0.09701
C         -1.36156        -0.78915        -0.81989
C         -0.09040        -1.57405        -1.09083
C          1.19856        -0.82274        -1.21516
C          2.50466        -1.56921        -1.35355
C          3.79694        -0.83460        -1.33831
C          5.18291        -1.50518        -1.28065
C          5.99353        -0.83782        -0.14887
C          7.28466        -1.57779         0.18271
C          8.53414        -0.82377         0.51300
C          9.80898        -1.58825         0.67589
C         10.97201        -0.79989         1.08730
C         -9.91731        -2.99517         0.24783
C         -8.71369        -3.63293         0.34634
C         -7.47160        -2.91950         0.86141
C         -6.16585        -3.50769         0.32944
C         -4.90067        -2.76224         0.81250
C         -3.61276        -3.52274         0.47800
C         -2.46032        -2.87554         0.17654
C         -1.06035        -3.48620         0.31522
C         -0.09074        -3.06211        -0.80927
C          1.21884        -3.77592        -0.91436
C          2.53655        -3.00235        -0.85668
C          3.77324        -3.78152        -1.30718
C          5.09138        -3.05148        -1.26828
C          6.34322        -3.80960        -0.88864
C          7.44537        -3.03265        -0.19264
C          8.50313        -3.76616         0.63710
C          9.78290        -2.94725         0.71769
C         -8.58292        -5.07571         0.13168
C         -7.38869        -5.71126        -0.03557
C         -6.11485        -4.94501        -0.04320
C         -4.81628        -5.67961         0.02097
C         -3.71490        -4.99731         0.82532
C         -2.36837        -5.73531         0.82302
C         -1.06541        -4.98111         0.66039
C          0.27901        -5.67685         0.56268
C          1.39144        -5.10106        -0.23070
C          2.45588        -5.99307        -0.82046
C          3.75749        -5.30408        -1.18021
C          5.06254        -6.05174        -0.94327
C          6.28982        -5.27613        -0.65084
C          7.40303        -5.93172        -0.05736
C          8.72802        -5.19220         0.10387
C         -7.25739        -7.20810        -0.23931
C         -5.98837        -7.53898        -1.09275
C         -4.75486        -6.95771        -0.41613
C         -3.43964        -7.71494        -0.45085
C         -2.44303        -7.21116         0.57184
C         -1.56653        -8.07716         1.11694
C          0.39659        -7.11151         0.90740
C          1.27337        -7.97265         0.33523
C          2.38670        -7.47331        -0.54627
C          3.67330        -8.27006        -0.52540
C          4.99315        -7.53119        -0.58832
C          6.17772        -8.18089         0.14457
C          7.33709        -7.24777         0.35877
C         -5.88274        -9.02242        -1.32798
C         -4.80968        -9.77078        -1.00924
C         -3.60595        -9.22485        -0.38703
C         -2.65769       -10.05209         0.12079
C         -1.50719        -9.56421         0.96724
C         -0.12049       -10.09194         0.62298
C          1.12733        -9.43259         0.52696
C          2.29969       -10.19003         0.47136
C          3.67266        -9.63608         0.22796
C          4.49966        -9.43740         1.50381
C          5.67254        -8.79210         1.44755
O          5.17761         2.15774        -2.24184
O          3.14174        -1.16610        -2.59893
O          2.53645         6.95652        -1.08579
O          0.24451        -3.84024        -1.99230
O         -5.38569         2.16203        -1.92325
O          7.21670         3.59263        -1.75269
O          1.40026        -4.95024         1.22651
O         -6.86548        -0.68915         1.73941
O          0.20054         2.31351        -2.27576
O         -3.53247         8.84839         1.75294
O         -1.61786        -5.26527         1.98139
O          4.44682        -3.42041        -2.53237
O         -6.13980        -3.85433        -1.07341
O         -1.81654        -0.24682        -2.09856
O          3.28423         0.79567         0.48882
O          5.55559         7.20841         1.85096
O          3.36427         8.58120         1.94818
O         -6.38667         3.14427         1.33299
O          0.41198        -1.14598        -2.38771
O         -4.60287        -1.40386        -1.26757
O          7.53908        -3.29378        -1.61800
O         -3.04746         1.39462         0.69089
O         -3.27057         3.55607        -2.15519
O          4.48467        -8.30956        -1.71719
O          4.49103        -5.86845        -2.28275
O         -0.48864        -7.58861         1.89178
O          7.61304        -1.28957         1.59190
O         -9.31461        -1.10689        -1.09659
O         -2.55596         7.63500        -0.97874
O          1.95581        -6.92561        -1.82579
O          5.30143         4.49553         1.33777
O         -4.90496        -2.59802         2.20980
O         -7.16506        -7.85586         1.03515
H         -6.45890        -7.42007         1.55697
O         -7.99204         1.72424        -1.59841
H         -7.15789         1.82612        -2.12440
O          7.62007         5.47741         2.08693
H          6.77015         5.74337         2.50863
O          6.68777        -9.27312        -0.67443
H          6.79631        -8.92946        -1.58746
O         -6.51233         5.35458        -1.65605
H         -6.50588         6.31806        -1.83525
O          0.70302         7.90559         1.83675
H          1.41427         8.32118         2.37550
O          4.33665       -10.63228        -0.55877
H          5.25635       -10.30962        -0.74696
O         10.46935         1.08626        -1.18010
H          9.74520         1.28888        -1.82009
O          8.09646         1.25077         1.63479
H          7.70022         0.51675         2.15806
O          7.99836        -3.93238         1.98265
H          7.87521        -3.02912         2.35947
O          0.28617         7.66066        -1.81323
H         -0.33883         7.13459        -2.36666
O         -0.42541        -2.84195         1.45334
H         -0.87828        -3.17067         2.26236
O         -3.51487         6.76579         2.55518
H         -3.99332         7.26812         3.24759
O          9.86874         5.55091         0.72095
H          9.65036         5.54785         1.67885
O          0.02026         5.69846         1.23903
H          0.06677         4.73858         1.47852
O         -2.84868        -7.42042        -1.75438
H         -3.53680        -7.58113        -2.43609
O         -8.76683         3.45527         2.34539
H         -7.82304         3.46286         2.63144
O          8.01602         0.91274        -2.03143
H          7.33385         1.26026        -2.65065
O          0.78832         0.41693         0.75266
H          1.62459         0.31654         1.26517
O         -2.16001        -0.89262         1.43782
H         -2.87171        -1.23433         2.02509
O          1.09968         3.29694         1.14837
H          1.98686         3.39241         1.55513
O         -1.47496         5.61843        -2.09625
H         -2.18382         5.05706        -2.50083
O         -4.19754        -5.11022         2.18954
H         -4.44737        -4.19001         2.50982
O          5.85743        -1.16114        -2.49738
H          5.36503        -1.59924        -3.22857
O          9.42619        -5.17033        -1.13858
H          8.90963        -4.60659        -1.76240
O          2.76638        -2.83420         0.58032
H          1.92583        -2.95683         1.08259
O         -2.24470         4.81886         1.40866
H         -2.76997         5.23137         2.13578
O         -1.24135         9.79231        -1.69425
H         -1.88841         9.19271        -2.12738
O         -1.72240       -10.12826         2.30605
H         -1.19149        -9.58748         2.93097
O         -7.46624        -3.15542         2.27919
H         -6.55896        -2.85407         2.59716
O          5.14830        -0.93491         1.01544
H          5.69249        -0.71305         1.80286
O         -6.14605        -6.91545        -2.38990
H         -6.17246        -5.94095        -2.26830
H         11.79977        -1.34498         1.56664
H         11.87049         1.10193         1.39237
H         10.76738         3.33502         0.77151
H          8.80519         5.31878        -1.03149
H          8.03943         7.55593        -0.40671
H          6.90268         9.84108         0.15824
H          4.98557        11.05193         0.27249
H          2.56888        11.19624        -0.08560
H         -0.16100        11.40008         0.29460
H         -2.94383        11.09640        -0.68021
H         -5.38439        11.26914         0.49704
H         -7.21132         9.76806         0.73223
H         -8.33953         7.80853         0.80170
H         -9.55871         5.66039         1.08095
H        -10.97294         3.39640         0.47748
H        -12.20255         1.16443         0.66324
H        -12.21422        -1.26619         0.52377
H        -10.81443        -3.58373        -0.00648
H         -9.51463        -5.65952         0.05594
H         -8.16410        -7.61302        -0.75281
H         -6.75967        -9.50370        -1.78699
H         -4.83657       -10.85870        -1.17901
H         -2.81359       -11.14182         0.07801
H         -0.06120       -11.19315         0.66808
H          2.22959       -11.28704         0.52635
H          4.16225        -9.89997         2.44368
H          6.30495        -8.70418         2.34425
H          8.23593        -7.70300         0.80218
H          9.36529        -5.74864         0.83519
H         10.71244        -3.49402         0.94011
