         234
 CSIRO Nanostructure Databank - Neutral Graphene Oxide Data Set
C          1.14751         1.95805        -0.02264
C          1.09363         3.35745        -0.01758
C          2.35667         1.27999         0.09448
C          2.27462         4.12306         0.07694
C          1.11347         6.37096         0.15600
C          1.16009         7.79752        -0.03909
C          2.24430         5.59685         0.09925
C          2.32130         8.52242        -0.17638
C          1.17038        10.72142        -0.17106
C          1.18680        12.10031        -0.23540
C          2.35679         9.97424        -0.33227
C          2.38775        12.81743        -0.43129
C          1.19073        15.00574        -0.30521
C          1.19992        16.43534        -0.24398
C          2.35033        14.26863        -0.42467
C          2.37291        17.13254        -0.04708
C          2.43298        18.55548         0.10266
C          3.57044         2.00351         0.21855
C          3.50551         3.42205         0.15901
C          4.83156         1.32983         0.36200
C          4.75236         4.17458         0.40277
C          3.51117         6.31255        -0.20298
C          3.62867         7.80915         0.04632
C          4.78932         5.55419        -0.14609
C          4.81144         8.45009        -0.64185
C          3.57130        10.67316        -0.59255
C          3.60884        12.09253        -0.60770
C          4.79277         9.88049        -0.89839
C          4.88080        12.83833        -0.71382
C          3.62213        15.03902        -0.69002
C          3.63374        16.35650         0.07704
C          4.88152        14.21539        -0.58911
C          4.92379        17.06952         0.35230
C          3.61732        19.21912         0.27790
C          4.90695        18.57760         0.40146
C          6.05428         1.99625         0.55735
C          6.02815         3.46741         0.75104
C          7.30011         1.34151         0.52090
C          7.35523         4.21608         0.92662
C          6.10503         6.27553        -0.23149
C          6.09586         7.72874        -0.64589
C          7.29720         5.69796         0.47968
C          7.36742         8.48911        -0.54116
C          6.15254        10.65079        -0.97540
C          6.16008        12.12950        -0.78617
C          7.38694         9.89272        -0.70124
C          7.37308        12.79574        -0.77447
C          6.12531        15.00467        -0.71412
C          6.16174        16.33753        -0.05374
C          7.44863        14.27107        -0.87127
C          7.35805        16.77027         0.44783
C          6.01466        19.41193         0.45091
C          7.35161        18.94080         0.73345
C          8.55893         2.03350         0.52533
C          8.57291         3.49101         0.40439
C          9.76553         1.35981         0.66199
C          9.74988         4.18050         0.13316
C          8.58066         6.39560         0.16939
C          8.56553         7.77108        -0.37798
C          9.81623         5.60411         0.04544
C          9.81108         8.44210        -0.37926
C          8.61491        10.57639        -0.54555
C          8.65457        12.05132        -0.70286
C          9.80986         9.85643        -0.40155
C          9.91319        12.77592        -0.28790
C          8.79166        15.02203        -0.70275
C          8.65785        16.33137         0.05574
C          9.91658        14.23601        -0.06909
C          9.79612        17.09435         0.28261
C          8.58282        19.38553         0.33939
C          9.80690        18.56755         0.41557
C         11.03837         2.15509         0.79858
C         10.99080         3.35354        -0.15233
C         12.30584         1.37057         0.62656
C         12.27965         4.14173        -0.12372
C         11.02934         6.28100        -0.25694
C         11.05222         7.71864        -0.31761
C         12.24850         5.53263        -0.33712
C         12.28507         8.45121        -0.30589
C         11.03717        10.51525         0.08774
C         11.02090        11.97473         0.32172
C         12.32868         9.81863        -0.03029
C         12.31516        12.65975         0.64490
C         11.02404        14.90265         0.37812
C         11.07012        16.37760         0.31819
C         12.24980        14.15086         0.79070
C         12.25774        17.06407         0.38325
C         11.00719        19.22388         0.33312
C         12.31460        18.53515         0.06022
C         13.51787         2.01100         0.30456
C         13.50144         3.44510        -0.02918
C         14.72749         1.30147         0.35181
C         14.73832         4.15791        -0.17248
C         13.50369         6.22992        -0.64006
C         13.53954         7.75780        -0.62175
C         14.76280         5.51313        -0.45514
C         14.82355         8.46972        -0.42432
C         13.56893        10.56666         0.05134
C         13.57995        11.92035         0.37711
C         14.83506         9.86268        -0.17268
C         14.86647        12.65161         0.48861
C         13.54083        14.90696         0.87581
C         13.52892        16.38571         0.70120
C         14.82583        14.14281         0.69237
C         14.81063        17.11048         0.54769
C         13.53341        19.21543         0.62513
C         14.76760        18.55234         0.68163
C         16.01880         1.89820        -0.12755
C         16.00753         3.42157         0.06869
C         17.25566         1.32276         0.51709
C         17.29312         4.15054        -0.06154
C         16.01007         6.28075        -0.70670
C         16.03044         7.75668        -0.56022
C         17.31890         5.56439        -0.54219
C         17.27124         8.44979        -0.56399
C         16.07719        10.56061        -0.23241
C         16.12906        12.00522         0.00301
C         17.27163         9.86838        -0.52486
C         17.31374        12.69959        -0.01576
C         16.00347        14.94698         0.24090
C         16.00854        16.41433         0.50996
C         17.28495        14.19496         0.03989
C         17.25653        17.11385         0.57775
C         16.00225        19.22704         0.87936
C         17.23366        18.53517         0.83218
C         18.54626         1.90716         0.20914
C         18.58381         3.41009        -0.17742
C         19.81272         1.37860         0.74296
C         19.80645         4.19532         0.04278
C         18.56235         6.33251        -0.34663
C         18.53249         7.71901        -0.48628
C         19.78733         5.61756        -0.10362
C         19.77522         8.44202        -0.57683
C         18.49501        10.66315        -0.98089
C         18.67399        11.97582        -0.15941
C         19.75559         9.80605        -0.98561
C         19.76975        12.93726        -0.67504
C         18.52452        14.95453         0.36521
C         18.48935        16.42274         0.49002
C         19.85752        14.26056        -0.02502
C         19.71339        17.13363         0.60133
C         18.46089        19.20983         1.03101
C         19.69205        18.53896         0.90719
C         20.95518         2.11209         0.73085
C         20.99713         3.51857         0.36827
C         22.19839         4.26646         0.46624
C         21.01566         6.33180        -0.09224
C         21.01001         7.73201        -0.47309
C         22.21133         5.62421         0.20199
C         22.20701         8.37371        -0.87129
C         20.93355        10.31207        -1.53298
C         20.78067        12.66901        -1.58934
C         22.15920         9.61941        -1.47110
C         21.81314        13.60111        -1.90626
C         20.96887        15.17832        -0.28459
C         20.96450        16.50636         0.28768
C         21.92514        14.81178        -1.24473
C         22.15314        17.25270         0.39778
C         20.92535        19.23903         1.04272
C         22.12932        18.59346         0.81096
O          7.90224         6.51292         1.51652
O         15.11146        13.26926         1.82274
O         10.66609        11.09471         1.43370
O         19.34999        14.29232         1.36326
O          6.74265        14.83218        -2.04234
O         13.53157        15.75835         2.06394
O          5.43800        10.25589        -2.17793
O          7.33474        17.73495         1.45956
O          5.13408         3.98322         1.81488
O         16.75120         5.76012        -1.87958
O          6.34864         6.61545        -1.63088
O          4.07512         5.72596        -1.41216
O          4.18117        16.36673         1.42613
O         13.47271         7.02864        -1.89183
O         16.69066         3.94028         1.26879
O         12.15399        13.29185         1.97219
O         18.66769         2.39733        -1.20874
O          9.66299        12.45618        -1.70316
O         20.92178        11.48341        -2.29442
O         16.51212        14.70163        -1.11940
O         18.20429        11.08303        -2.33447
H         18.08585        10.28532        -2.89065
O         12.48815        18.62578        -1.41549
H         13.38142        18.27943        -1.62776
O          7.60619         4.20306         2.35398
H          6.75919         4.43948         2.79630
O          3.90799         7.88955         1.49745
H          3.73321         8.80898         1.79111
O         11.08329         2.70403         2.15863
H         10.87259         1.98375         2.78849
O          9.26086        15.35506        -2.03509
H          8.46530        15.41091        -2.61378
O          3.57573        15.45581        -2.09642
H          3.68269        14.65685        -2.65490
O         19.06402        11.56473         1.16713
H         19.17207        12.38411         1.70698
O         16.07110         1.67347        -1.57307
H         16.99979         1.85747        -1.86017
O         10.87315         2.81212        -1.49516
H         10.96034         3.54929        -2.13488
H          0.21231         1.38666        -0.10697
H          0.11782         3.85750        -0.08855
H          2.37514         0.18101         0.11341
H          0.12435         5.91172         0.29431
H          0.18735         8.30402        -0.11671
H          0.21762        10.21203         0.02107
H          0.24070        12.63946        -0.10216
H          0.21110        14.51168        -0.24387
H          0.24142        16.97341        -0.27994
H          1.49490        19.12692         0.04017
H          4.84097         0.23269         0.27224
H          3.60132        20.31725         0.35236
H          7.31504         0.24293         0.45294
H          5.85479        20.49061         0.28984
H          9.77630         0.26878         0.81056
H          8.67449        20.36856        -0.14651
H         12.32896         0.31309         0.93558
H         11.01199        20.32460         0.30139
H         14.70281         0.22847         0.59628
H         13.51339        20.31080         0.73098
H         17.17369         0.62493         1.36255
H         16.00327        20.31465         1.04109
H         19.81655         0.35850         1.15429
H         18.45334        20.28648         1.25574
H         21.88851         1.66152         1.10082
H         23.13171         3.75068         0.73405
H         23.16620         6.16482         0.25492
H         23.16713         7.84542        -0.80476
H         23.06239        10.07838        -1.89329
H         22.54952        13.31294        -2.66733
H         22.74445        15.49894        -1.49571
H         23.11848        16.77384         0.18295
H         20.90817        20.30372         1.31554
H         23.07576        19.14145         0.91852
