         349
 CSIRO Nanostructure Databank - Neutral Graphene Oxide Data Set
C          1.27478         3.33952        -0.54053
C          0.12429         4.02914        -0.27253
C          1.20257         6.20952        -0.60101
C          0.10600         5.46277        -0.24431
C          1.21403         7.66206        -0.58212
C          0.00866         8.38332        -0.47595
C          1.19265        10.51489        -0.53587
C         -0.00521         9.76895        -0.47295
C          1.17486        11.96064        -0.53424
C         -0.03948        12.69015        -0.54337
C          1.13576        14.83513        -0.49954
C         -0.05884        14.07248        -0.52872
C          1.09839        16.26718        -0.38662
C         -0.13623        16.99882        -0.36020
C          1.03953        19.02413         0.39791
C         -0.17741        18.31791        -0.01580
C          1.02678        20.54064         0.65757
C         -0.18143        21.39448         0.51616
C          1.13388        23.52155         0.21613
C         -0.13876        22.73854         0.45014
C          1.18754        24.96957         0.66875
C         -0.01934        25.73496         0.88331
C          1.21037        27.84240         0.45989
C         -0.02334        27.09044         0.87343
C          1.27035        29.26615         0.95206
C          3.70475         3.38694        -0.85608
C          2.50065         4.04203        -0.81682
C          3.71167         6.25503        -0.87249
C          2.42239         5.51560        -1.15212
C          3.69837         7.68798        -0.75955
C          2.44696         8.38626        -0.66330
C          3.67041        10.55074        -0.59381
C          2.43630         9.81499        -0.60008
C          3.65337        11.98369        -0.55670
C          2.40263        12.68495        -0.53738
C          3.61615        14.81744        -0.54077
C          2.38512        14.11344        -0.51932
C          3.57317        16.31016        -0.74367
C          2.32646        17.00502        -0.23656
C          3.60116        19.09854         0.49236
C          2.32702        18.33715         0.13782
C          3.53126        20.57296         0.01396
C          2.34953        21.26901         0.67862
C          3.67554        23.44512         0.53438
C          2.36445        22.75371         0.64341
C          3.68338        24.88146         0.70171
C          2.42879        25.61818         0.71578
C          3.65687        27.74862         0.95029
C          2.46954        27.06822         0.77672
C          3.71711        29.19717         0.99778
C          2.44785        29.90467         1.11531
C          6.15911         3.41225        -0.82182
C          4.96014         4.10175        -0.93483
C          6.16788         6.30157        -1.01765
C          4.90671         5.55372        -0.93560
C          6.16913         7.75042        -0.77869
C          4.92477         8.42352        -0.69965
C          6.14733        10.58197        -0.56116
C          4.91047         9.85860        -0.60860
C          6.12987        12.00496        -0.55861
C          4.87889        12.70913        -0.56944
C          6.10166        14.88040        -0.73154
C          4.84972        14.14105        -0.59835
C          6.08838        16.26395        -0.81358
C          4.86969        16.96091        -0.33825
C          5.98356        19.27623        -0.55834
C          4.89103        18.39008         0.04542
C          6.04246        20.60234         0.15404
C          4.85753        21.28650         0.28210
C          6.12380        23.36791         1.01000
C          4.83985        22.70550         0.57740
C          6.15918        24.86503         0.79450
C          4.90490        25.55170         0.86158
C          6.22394        27.74168         1.04811
C          4.90732        26.99486         1.13349
C          6.18810        29.19865         0.80228
C          4.92293        29.87232         0.92369
C          8.55709         3.42882        -0.20525
C          7.42262         4.07451        -0.61831
C          8.66242         6.30498        -0.49261
C          7.45927         5.53604        -0.85692
C          8.62599         7.72788        -0.52610
C          7.40668         8.43981        -0.62969
C          8.61562        10.59928        -0.37476
C          7.39983         9.88450        -0.51345
C          8.60965        12.03108        -0.39893
C          7.36782        12.72794        -0.53862
C          8.58263        14.84286        -0.62956
C          7.36016        14.14725        -0.67366
C          8.61406        16.28325        -0.99267
C          7.32326        17.05057        -1.00272
C          8.59868        19.25461        -0.45362
C          7.32264        18.55349        -0.77838
C          8.60220        20.50752         0.10114
C          7.35066        21.15902         0.66755
C          8.63942        23.39251         0.88304
C          7.36873        22.66082         0.57087
C          8.61991        24.78990         0.24353
C          7.37080        25.55299         0.65796
C          8.62795        27.68454         0.46636
C          7.43230        26.98045         0.68062
C          8.62518        29.13191         0.43734
C          7.37270        29.84461         0.51803
C         11.05967         3.48019         0.33565
C          9.74448         4.20134         0.31453
C         11.12114         6.24574        -0.52022
C          9.82916         5.60709        -0.20599
C         11.13407         7.74322        -0.58922
C          9.87773         8.41449        -0.03689
C         11.06199        10.59835        -0.03610
C          9.87613         9.91225        -0.21172
C         11.09831        12.04895        -0.04411
C          9.83389        12.75556        -0.26189
C         11.01400        14.95384        -0.13118
C          9.79254        14.16345        -0.36501
C         11.10528        16.35803        -0.54075
C          9.88911        17.06549        -1.00357
C         11.12226        19.18419        -0.47435
C          9.86350        18.61946        -1.06056
C         11.10706        20.49105         0.17528
C          9.84959        21.26079         0.29625
C         11.13042        23.39169         0.73426
C          9.87605        22.61370         0.52771
C         11.14081        24.87538         0.54557
C          9.90974        25.56218         0.44844
C         11.11135        27.70697         0.36153
C          9.89020        26.97590         0.39344
C         11.08988        29.14917         0.30996
C          9.82791        29.82349         0.32928
C         13.42167         3.57954         0.89178
C         12.28098         4.13391         0.27009
C         13.77444         6.18540        -0.46253
C         12.40226         5.47813        -0.36959
C         13.71484         7.71685        -0.25882
C         12.43500         8.46617        -0.45358
C         13.62528        10.59601         0.35377
C         12.34716         9.85653         0.12108
C         13.60763        12.10955         0.58268
C         12.30015        12.72824         0.10564
C         13.57116        14.87841        -0.24909
C         12.32074        14.19622         0.10203
C         13.55259        16.25191        -0.38491
C         12.32315        17.00296        -0.47368
C         13.56168        19.14770        -0.42904
C         12.34674        18.46438        -0.49882
C         13.54022        20.64068        -0.53778
C         12.42998        21.19553         0.33771
C         13.71343        23.41805         0.48089
C         12.43549        22.65410         0.67849
C         13.67310        24.91191         0.47599
C         12.35896        25.59678         0.49397
C         13.58953        27.75907         0.27712
C         12.35695        27.01631         0.36656
C         13.55612        29.19367         0.22243
C         12.29304        29.85850         0.25461
C         15.58754         3.81026         2.01463
C         14.61169         4.32656         1.07366
C         16.11152         6.25149         0.57186
C         14.81092         5.56743         0.45364
C         16.16017         7.73529         0.27367
C         14.86295         8.41176        -0.01783
C         16.18485        10.65625        -0.09092
C         14.89097         9.90676        -0.07581
C         16.17684        12.12518         0.32858
C         14.85582        12.81664         0.06328
C         16.00311        14.73074        -1.07305
C         14.81612        14.12403        -0.33126
C         16.03252        16.29636        -1.13729
C         14.84636        16.95850        -0.46784
C         16.04472        19.15751        -0.99247
C         14.84680        18.44935        -0.45106
C         16.04496        20.68818        -0.89993
C         14.87537        21.28471        -0.28628
C         16.07788        23.52529        -0.55280
C         14.82912        22.74048        -0.24455
C         16.05934        24.96942        -0.22277
C         14.89443        25.64738         0.04696
C         16.03375        27.84321         0.03216
C         14.85538        27.10131         0.15697
C         16.02557        29.28426         0.03972
C         14.75688        29.92837         0.11714
C         17.68619         3.97222         3.26537
C         16.77926         4.43558         2.25277
C         18.05597         6.59525         2.25146
C         17.23912         5.56102         1.33940
C         18.41161         7.77586         1.37804
C         17.24040         8.62798         0.91460
C         18.66103        10.60435        -0.02846
C         17.47779         9.92186         0.13318
C         18.72493        12.15323         0.05023
C         17.40309        12.84631        -0.20397
C         18.55023        14.91284        -0.89618
C         17.34238        14.13581        -0.66862
C         18.55594        16.31131        -0.90451
C         17.31340        17.03739        -0.86005
C         18.53837        19.20974        -0.95812
C         17.32683        18.45806        -0.90731
C         18.54932        20.62890        -1.04113
C         17.34725        21.39785        -0.90650
C         18.58941        23.56198        -0.91148
C         17.34315        22.78440        -0.73474
C         18.64956        24.97285        -0.40287
C         17.35051        25.67902        -0.16636
C         18.58004        27.89670        -0.40093
C         17.29454        27.15483        -0.31264
C         18.56822        29.31427         0.14393
C         17.23614        29.99432        -0.03513
C         18.89591         4.59806         3.48552
C         20.53838         6.11663         2.44688
C         19.21697         5.79682         2.79020
C         20.77527         7.06417         1.46396
C         19.70536         7.83303         0.90328
C         21.05008        10.63197        -0.68276
C         19.95466         9.96457        -0.19819
C         20.97520        12.02320        -1.01357
C         19.86660        12.75446        -0.73708
C         21.04308        14.96975        -0.73423
C         19.83517        14.19060        -1.19875
C         21.01748        16.31244        -0.61774
C         19.79309        17.07466        -0.80638
C         20.97184        19.25951        -0.49662
C         19.78446        18.47239        -0.80188
C         21.00665        20.59840        -0.65975
C         19.88191        21.30575        -1.37102
C         21.11146        23.61168        -0.94895
C         19.87860        22.83846        -1.20316
C         21.09451        24.97666        -0.78453
C         19.90174        25.74778        -0.62086
C         21.01627        27.98154        -0.61244
C         19.88874        27.16689        -0.47883
C         20.90764        29.40842        -0.66286
C         19.75152        30.07864        -0.38363
O         11.75770         8.33296        -1.75268
O          3.53269        16.43256        -2.16272
O         14.06215        24.13700         1.69418
O         11.95904        20.39035         1.42407
O         18.15196        25.16564         0.97454
O          0.90679        19.60663         1.76113
O         15.77048        19.95162        -2.17314
O         16.62449         6.79211        -0.72045
O         17.80497        27.66617        -1.61621
O         15.47356        10.40045        -1.33932
O          9.37506        16.47246        -2.24721
O          6.98319         5.90033        -2.19420
O          5.21862        17.38347         1.06204
O         15.07230        23.27099        -1.61721
O         12.96086         9.90275         1.46433
O         15.17674        17.66743         0.77018
O         11.72665         5.54388        -1.67149
O          5.65538        27.35836         2.34787
O          7.32266        17.98115        -2.13962
O         11.82401        22.94782         1.95882
O         20.10084         8.58396        -0.19308
O         11.57198        14.77438         1.22440
O         16.19227        16.69935        -2.49283
O          2.41677        22.01847         1.92177
O         19.08930        23.46443        -2.29464
O          3.14967        20.62507        -1.37169
H          3.90966        20.28923        -1.91379
O          2.26603         5.58196        -2.61568
H          3.06001         5.16517        -3.01426
O         19.04940        12.36254         1.46694
H         18.19940        12.30127         1.96658
O         18.12839         4.98241         0.38520
H         17.98257         5.44387        -0.47370
O         15.79509        14.27268        -2.42857
H         15.97015        15.07294        -3.00096
O         16.33112        12.06903         1.80343
H         15.43415        12.26191         2.19608
O         20.10152        21.07051        -2.79289
H         19.52102        21.70558        -3.27149
O          7.39667        20.85367         2.11127
H          6.70874        21.43056         2.53603
O          1.26826        23.60743        -1.24484
H          0.59863        24.24357        -1.57400
O         13.64063        12.30701         2.03480
H         13.07903        11.59209         2.42189
O          1.13854        27.93828        -1.01475
H          1.92362        28.44802        -1.30834
O          6.09368        23.22050         2.49654
H          6.92337        23.65707         2.82178
O         18.76325        29.15901         1.59863
H         18.81394        30.05549         1.99166
O          8.72927        23.61766         2.33362
H          9.02783        22.77575         2.74393
O         17.19531         6.91763         3.35377
H         16.80216         7.81154         3.19939
O          5.49628        19.59984        -1.89551
H          5.80857        18.88169        -2.50180
O          8.51412        24.55470        -1.19157
H          8.50847        25.42320        -1.64569
O          9.42759         4.37814         1.77333
H          9.31823         3.48104         2.15625
O          3.64530        19.18854         1.92924
H          4.01747        18.34144         2.26471
O         19.91417        14.14703        -2.66541
H         19.80475        15.06303        -2.99932
O          9.87588        18.99532        -2.45868
H          9.27450        18.36086        -2.92002
O         16.57903         9.16313         2.12491
H         16.80925        10.11926         2.23502
O          9.96084         8.16044         1.40421
H          9.15888         8.53200         1.82802
O         13.16080        21.01060        -1.90431
H         13.91537        20.75439        -2.48741
O         14.24201         5.98970        -1.81660
H         13.45729         6.09169        -2.40418
H          1.29804         2.24164        -0.47449
H         -0.79725         3.48750        -0.01770
H         -0.81311         5.95221         0.10813
H         -0.94833         7.84678        -0.42904
H         -0.97474        10.27980        -0.41422
H         -1.00063        12.16035        -0.56251
H         -1.03445        14.57632        -0.52694
H         -1.07876        16.48989        -0.60479
H         -1.14298        18.83886         0.04938
H         -1.15930        20.89773         0.61521
H         -1.09316        23.28687         0.41079
H         -0.95445        25.19389         1.09226
H         -0.95338        27.65016         1.05106
H          0.32276        29.81761         1.04890
H          3.73705         2.29568        -0.71158
H          2.47397        30.97468         1.37204
H          6.13222         2.31417        -0.74931
H          4.91852        30.97317         0.91044
H          8.53631         2.34003        -0.03707
H          7.38264        30.93642         0.37886
H         11.04733         2.47483         0.79036
H          9.81749        30.92334         0.29854
H         13.33566         2.59687         1.37832
H         12.27064        30.95784         0.21663
H         15.29914         2.93877         2.62255
H         14.71067        31.02757         0.09467
H         17.43718         3.04595         3.80468
H         17.20850        31.09575        -0.03000
H         19.66062         4.11713         4.11433
H         21.36963         5.53379         2.86935
H         21.79117         7.23971         1.08720
H         21.95572        10.06282        -0.92741
H         21.81656        12.47656        -1.55585
H         21.98717        14.42562        -0.58458
H         21.94275        16.84538        -0.35773
H         21.84484        18.75422        -0.05910
H         21.91165        21.15732        -0.38106
H         22.08102        23.09553        -0.98925
H         22.06174        25.49845        -0.73087
H         22.01054        27.53446        -0.75226
H         21.80540        29.97645        -0.94996
H         19.70860        31.17629        -0.44930
