         620
 CSIRO Nanostructure Databank - Neutral Graphene Oxide Data Set
C         22.98998        27.22278        -0.44357
C         22.97017        28.60605        -0.16797
C         22.87065        31.63433        -0.09710
C         22.91452        32.98693        -0.01328
C         22.93501        35.90856         0.35195
C         22.93841        37.27967         0.48241
C         23.00749        40.22036         0.94971
C         23.02442        41.61042         1.10772
C         23.08403        44.61471         1.42403
C         23.19955        45.94359         1.68640
C         25.48655        24.49937        -0.99232
C         24.27993        25.14196        -0.81256
C         25.42666        27.30884        -0.76309
C         24.21567        26.56068        -0.69208
C         25.36412        28.81592        -0.87508
C         24.10125        29.38903        -0.27550
C         25.38177        31.56055         0.21920
C         24.07423        30.81872         0.12071
C         25.37211        33.03759         0.14599
C         24.15133        33.72873         0.14745
C         25.37211        35.89229         0.16793
C         24.14349        35.17116         0.21349
C         25.37440        37.31720         0.27207
C         24.15071        38.02630         0.47341
C         25.46124        40.12361         0.83389
C         24.15904        39.44480         0.72246
C         25.48360        41.64540         0.96271
C         24.20155        42.39376         1.00659
C         25.42310        44.55421         0.64105
C         24.22561        43.80402         1.08632
C         25.59028        45.96450         0.94418
C         24.53947        46.62240         1.80439
C         25.57391        48.76754         1.08146
C         24.49726        48.10513         1.55578
C         28.05247        23.09364        -1.34348
C         27.98271        24.53755        -1.13931
C         26.71034        25.22017        -1.03440
C         27.88261        27.42236        -0.91522
C         26.65700        26.64658        -0.90165
C         27.90162        28.78352        -0.64882
C         26.64778        29.51122        -0.44343
C         27.89703        31.53797         0.35610
C         26.64265        30.82435        -0.06905
C         27.86004        33.03881         0.08445
C         26.61754        33.74728         0.09882
C         27.84594        35.88536        -0.02917
C         26.61246        35.17135         0.06109
C         27.84775        37.31691        -0.12006
C         26.61571        38.04622         0.11233
C         27.82107        40.18826        -0.14679
C         26.65388        39.42595         0.31482
C         27.99150        41.62941         0.18469
C         26.76150        42.37066         0.64993
C         27.96660        44.53742         0.11385
C         26.70893        43.80322         0.26811
C         27.94589        45.93707         0.14180
C         26.75736        46.64579         0.58573
C         27.95650        48.78489         0.30393
C         26.80071        48.08783         0.68509
C         27.99579        50.23641         0.32998
C         30.43572        23.12821        -0.69748
C         29.22143        22.42900        -1.25457
C         30.46620        24.58659        -1.11179
C         29.18119        25.25461        -1.16154
C         30.41607        27.49532        -1.33067
C         29.12391        26.72281        -1.29203
C         30.40910        28.86514        -0.79393
C         29.16819        29.49345        -0.51652
C         30.36396        31.54819        -0.02291
C         29.15633        30.85373        -0.11865
C         30.33397        33.02299        -0.12217
C         29.05554        33.74985        -0.00016
C         30.31879        35.90877        -0.02695
C         29.07595        35.17786        -0.05239
C         30.31636        37.32226        -0.14815
C         29.06963        37.99382        -0.29228
C         30.37898        40.15059        -0.74413
C         29.07358        39.42805        -0.58274
C         30.36513        41.68804        -0.72441
C         29.13351        42.38936        -0.35482
C         30.38313        44.50022        -0.42043
C         29.17534        43.79111        -0.18985
C         30.32727        45.96265        -0.78499
C         29.12747        46.68778        -0.20061
C         30.30579        48.80226        -0.77419
C         29.12356        48.06981        -0.15202
C         30.33316        50.30704        -0.49191
C         29.08136        50.94548        -0.04425
C         32.92844        20.26905        -0.79542
C         31.75234        20.98659        -0.72589
C         32.94266        23.07380        -1.06581
C         31.74116        22.39431        -0.89763
C         32.98090        24.53862        -1.43588
C         31.66072        25.25758        -1.23280
C         32.98173        27.44297        -1.01223
C         31.70556        26.72986        -1.37299
C         32.92525        28.84720        -0.55392
C         31.64509        29.51526        -0.49589
C         32.84578        31.55442         0.27807
C         31.60240        30.87202        -0.10692
C         32.86139        33.08068         0.32700
C         31.61193        33.78318        -0.08019
C         32.77155        35.94266         0.20195
C         31.56870        35.24324         0.08231
C         32.75543        37.35715         0.16930
C         31.55441        38.05427        -0.08724
C         32.83920        40.17802        -0.26234
C         31.61513        39.46412        -0.34941
C         32.90589        41.61900        -0.75567
C         31.62750        42.39542        -0.53222
C         32.87334        44.53373        -0.47207
C         31.61806        43.79297        -0.47297
C         32.85672        45.94848        -0.44066
C         31.62564        46.70064        -0.51125
C         32.86941        48.81963        -0.36148
C         31.62599        48.08444        -0.48993
C         32.89414        50.22427        -0.20016
C         31.64351        51.01218        -0.23784
C         32.88179        52.97771         0.56830
C         31.69510        52.35710         0.36860
C         35.44746        18.76636        -0.99038
C         35.41312        20.19139        -0.87870
C         34.17620        20.92982        -0.90740
C         35.40986        23.07909        -0.87693
C         34.18486        22.36294        -0.98705
C         35.40778        24.52540        -0.72031
C         34.18582        25.26241        -0.85068
C         35.36962        27.35560        -0.30242
C         34.18747        26.64870        -0.68482
C         35.37455        28.77455        -0.09461
C         34.12105        29.49397        -0.18684
C         35.33486        31.60954         0.32537
C         34.13681        30.88942         0.13310
C         35.34165        33.06098         0.31682
C         34.12977        33.76269         0.15511
C         35.35637        35.96886         0.01469
C         34.06435        35.22424        -0.00782
C         35.32582        37.35954         0.57807
C         33.97169        38.11134         0.51191
C         35.20370        40.31207         0.53949
C         33.98716        39.55166         0.24371
C         35.29257        41.72524         0.10162
C         34.12055        42.38809        -0.29221
C         35.34292        44.52530        -0.35177
C         34.10464        43.81121        -0.38994
C         35.31322        45.93532        -0.45278
C         34.09587        46.66154        -0.41656
C         35.34344        48.80933        -0.34933
C         34.10549        48.09561        -0.37789
C         35.35452        50.22390        -0.17919
C         34.12219        50.92825        -0.02487
C         35.37798        53.02785         0.33642
C         34.14182        52.32819         0.27525
C         35.42693        54.47501         0.46105
C         37.87980        18.72222        -0.75030
C         36.62579        18.06259        -0.94717
C         37.85967        20.15272        -0.64081
C         36.63846        20.88447        -0.72710
C         37.81011        23.02655        -0.40695
C         36.63319        22.34283        -0.67982
C         37.91236        24.51224        -0.60585
C         36.59606        25.22221        -0.41392
C         37.73893        27.31585         0.32217
C         36.57805        26.62239        -0.14964
C         37.75904        28.71075         0.49958
C         36.55718        29.45878         0.28570
C         37.76128        31.61259         0.78298
C         36.58351        30.90313         0.46697
C         37.78946        33.04815         0.65673
C         36.60040        33.74588         0.36590
C         37.85052        35.94679         0.51044
C         36.68893        35.19479        -0.08219
C         37.79492        37.35815         0.62236
C         36.58766        38.09311         0.61241
C         37.78335        40.31898         0.65899
C         36.54331        39.54818         0.81880
C         37.77729        41.69631         0.39809
C         36.54103        42.41148         0.14377
C         37.82996        44.48449        -0.18458
C         36.58325        43.80339        -0.16931
C         37.87627        45.89459        -0.58930
C         36.55665        46.67011        -0.69637
C         37.81271        48.80818        -0.47876
C         36.58513        48.12095        -0.49656
C         37.83240        50.23573        -0.35320
C         36.58901        50.93767        -0.15306
C         37.88684        53.01755         0.25038
C         36.59201        52.32365         0.12430
C         37.90092        54.53198         0.43587
C         36.58011        55.18804         0.43452
C         40.33177        15.89171        -0.51746
C         39.19299        16.57477        -0.77747
C         40.32516        18.72341        -0.34446
C         39.10579        18.01205        -0.60239
C         40.29799        20.15472        -0.32541
C         39.09451        20.84138        -0.43405
C         40.28006        23.02786         0.20817
C         39.03107        22.27941        -0.09881
C         40.25266        24.50001         0.34997
C         39.05870        25.14223         0.14387
C         40.09387        27.13170         1.31558
C         38.87894        26.46799         0.71130
C         39.89980        28.56622         1.58481
C         38.93127        29.38354         1.07785
C         40.29563        31.65047         1.11774
C         38.96187        30.89588         1.38965
C         40.28278        33.04503         0.93632
C         39.04658        33.78333         0.75535
C         40.30200        35.95351         0.84039
C         39.05710        35.21111         0.71956
C         40.31652        37.37055         0.89041
C         39.02900        38.07703         1.01270
C         40.30059        40.31515         0.83853
C         39.02398        39.60917         0.98302
C         40.24856        41.70485         0.63185
C         39.03042        42.40952         0.38917
C         40.28275        44.56057         0.10674
C         39.04871        43.82388         0.13561
C         40.29900        45.98704        -0.09792
C         39.09037        46.67966        -0.35724
C         40.29661        48.80875        -0.42017
C         39.06678        48.08681        -0.44676
C         40.29743        50.23013        -0.58156
C         39.05114        50.94164        -0.46137
C         40.24231        53.10369        -0.57896
C         39.09174        52.36691        -0.29710
C         40.23202        54.53573        -0.47806
C         39.12501        55.25554         0.01111
C         40.33300        57.38506        -0.16032
C         39.17850        56.67737         0.10499
C         42.82481        15.89483        -0.16345
C         41.51240        16.55877         0.13302
C         42.79064        18.74016         0.04065
C         41.54868        18.04377        -0.12384
C         42.82247        20.16755         0.06091
C         41.58330        20.88600        -0.25329
C         42.79504        23.06676         0.39570
C         41.58248        22.37647        -0.07113
C         42.74584        24.48390         0.61677
C         41.47953        25.19639         0.70399
C         42.63046        27.39586         0.79446
C         41.42652        26.55868         1.04067
C         42.72649        28.87164         1.03195
C         41.81545        29.63083         1.68832
C         42.84063        31.74054         1.02513
C         41.63502        31.11605         1.65615
C         42.79367        33.15871         0.93028
C         41.53640        33.81388         0.92794
C         42.76820        35.97781         0.88457
C         41.53560        35.24075         0.87129
C         42.76570        37.40502         0.90728
C         41.52570        38.11460         0.91738
C         42.76330        40.24951         0.78451
C         41.53354        39.57162         0.89258
C         42.81095        41.72429         0.80948
C         41.48755        42.48258         0.73551
C         42.75215        44.53422         0.17099
C         41.52199        43.88087         0.29413
C         42.76762        46.00208         0.16956
C         41.51095        46.72153        -0.03793
C         42.77159        48.84362        -0.41631
C         41.53020        48.11576        -0.28086
C         42.75088        50.25302        -0.66140
C         41.50338        50.93140        -0.74614
C         42.76155        53.08690        -0.98840
C         41.44230        52.37251        -1.18127
C         42.76279        54.53119        -1.19073
C         41.39410        55.30281        -0.95334
C         42.71504        57.38972        -0.85082
C         41.49397        56.72829        -0.65297
C         43.98466        16.58738        -0.11648
C         45.24659        18.73605         0.26411
C         44.01857        18.01986         0.10818
C         45.24659        20.16179         0.43058
C         44.00272        20.89020         0.34327
C         45.19113        23.05365         0.91806
C         43.97193        22.32584         0.52625
C         45.20771        24.52366         0.79096
C         43.97568        25.19451         0.70608
C         45.22682        27.40922         0.73845
C         43.95155        26.66139         0.56006
C         45.21219        28.77915         0.75373
C         43.94611        29.55989         0.42998
C         45.25980        31.71185         0.74743
C         44.00824        31.02287         0.81379
C         45.25318        33.15179         0.78170
C         44.02310        33.86600         0.80516
C         45.25542        35.99037         0.86600
C         44.01692        35.28588         0.83912
C         45.23525        37.40878         0.94067
C         44.01563        38.11119         0.92261
C         45.20871        40.25406         0.56816
C         44.01476        39.55231         0.78600
C         45.18539        41.62947         0.04304
C         43.99286        42.42880         0.30397
C         45.23313        44.50471        -0.22826
C         44.00247        43.81461         0.09785
C         45.18811        45.94028        -0.68561
C         44.05333        46.73053        -0.08749
C         45.23027        48.84137        -0.63436
C         44.00757        48.16546        -0.42558
C         45.22384        50.26415        -0.73306
C         43.98826        50.96204        -0.75595
C         45.22215        53.13427        -0.83062
C         43.96715        52.40902        -0.85190
C         45.22687        54.55662        -0.86808
C         43.99300        55.29494        -1.02681
C         43.92138        56.69591        -1.01698
C         47.68969        18.74649         0.34848
C         46.50075        18.05963         0.26307
C         47.70932        20.16066         0.48560
C         46.48224        20.84999         0.56331
C         47.73340        23.06576         0.58362
C         46.50773        22.29709         0.87137
C         47.70184        24.50966         0.62539
C         46.45972        25.23247         0.77631
C         47.71781        27.36958         0.76173
C         46.47458        26.65517         0.80976
C         47.73592        28.79495         0.77997
C         46.46352        29.52275         1.13905
C         47.71736        31.64924         0.76671
C         46.47335        30.98250         0.76503
C         47.71857        33.10267         0.99979
C         46.47333        33.86715         0.86201
C         47.76025        35.99203         0.84487
C         46.49614        35.27516         0.88893
C         47.77333        37.41298         0.84198
C         46.51031        38.12245         1.07731
C         47.76262        40.30415         0.46254
C         46.50024        39.64503         0.84635
C         47.76186        41.67849         0.11235
C         46.49102        42.36607        -0.18839
C         47.69765        44.53525        -0.45114
C         46.46465        43.84146        -0.26267
C         47.70992        45.97767        -0.60425
C         46.49236        46.69427        -0.58643
C         47.71407        48.82464        -0.74643
C         46.48337        48.10788        -0.65350
C         47.70172        50.26382        -0.78218
C         46.47532        50.97591        -0.76883
C         47.68941        53.12333        -0.71750
C         46.45852        52.41487        -0.77363
C         47.65881        54.54182        -0.69767
C         46.47100        55.23460        -0.77544
C         50.20048        20.27762         0.58522
C         48.95752        20.90923         0.49567
C         50.16442        23.04481         0.06345
C         48.90829        22.34321         0.36342
C         50.16511        24.55078         0.16470
C         48.91064        25.24028         0.51478
C         50.19522        27.37327         0.46867
C         48.94593        26.65228         0.62164
C         50.17902        28.79859         0.44943
C         48.94097        29.50841         0.62554
C         50.18865        31.66792         0.47430
C         48.94821        30.95441         0.66477
C         50.23683        33.11025         0.53022
C         49.03198        33.84688         0.93924
C         50.21030        36.00129         0.59931
C         48.98837        35.30351         0.75642
C         50.21152        37.42570         0.57052
C         48.97704        38.13557         0.68954
C         50.20390        40.26582         0.32634
C         48.97147        39.57696         0.53372
C         50.19185        41.67760         0.11853
C         48.96214        42.39469        -0.00561
C         50.14238        44.51853        -0.46784
C         48.94791        43.82389        -0.33366
C         50.16492        45.89380        -1.10101
C         48.93047        46.69524        -0.77188
C         50.21014        48.82068        -1.00696
C         48.94691        48.10123        -0.83619
C         50.19601        50.27565        -0.94290
C         48.95250        50.97740        -0.81165
C         50.17432        53.08914        -0.64645
C         48.94155        52.39898        -0.71759
C         51.42193        20.98572         0.48924
C         52.66680        23.09006        -0.06437
C         51.44672        22.33738         0.19982
C         52.67557        24.49987        -0.00067
C         51.46814        25.21007         0.56469
C         52.63351        27.39287         0.05687
C         51.42976        26.69364         0.30951
C         52.62476        28.81699         0.04768
C         51.39698        29.51702         0.26467
C         52.60218        31.65558        -0.14892
C         51.37241        30.94474         0.22484
C         52.63465        33.17120        -0.10988
C         51.40179        33.84636         0.31757
C         52.67243        35.97002         0.36003
C         51.43734        35.27472         0.45053
C         52.67572        37.39750         0.37371
C         51.45005        38.11911         0.43622
C         52.66866        40.24102         0.17768
C         51.44412        39.54890         0.33841
C         52.62643        41.65129        -0.02033
C         51.42811        42.35992        -0.04633
C         52.67551        44.59557        -0.38198
C         51.40916        43.83903        -0.16523
C         52.65223        46.00404        -0.85384
C         51.46044        46.67379        -0.97328
C         52.68368        48.83941        -1.37368
C         51.41335        48.11698        -1.11787
C         52.69533        50.35154        -1.24580
C         51.40593        51.01577        -0.94176
C         51.37321        52.41084        -0.74502
C         55.00600        23.11149        -0.72554
C         53.85395        22.41107        -0.43414
C         55.03865        24.52662        -0.67380
C         53.85450        25.22937        -0.30190
C         55.04480        27.38420        -0.50733
C         53.86130        26.67594        -0.23400
C         55.06572        28.82372        -0.39586
C         53.86367        29.53302        -0.12717
C         55.09983        31.67684        -0.17031
C         53.88922        30.95081        -0.10701
C         55.13789        33.13153         0.01692
C         53.92984        33.85225         0.08628
C         55.16691        35.95047         0.40025
C         53.92313        35.25579         0.28974
C         55.16572        37.39338         0.34669
C         53.92408        38.09746         0.28993
C         55.16406        40.19876         0.12363
C         53.92299        39.51668         0.18751
C         55.14815        41.66295         0.01149
C         53.87999        42.33305        -0.40106
C         55.21474        44.49903        -0.74670
C         53.91136        43.80663        -0.62753
C         55.27964        45.97635        -0.69565
C         53.96079        46.71143        -0.76298
C         55.30029        48.87569        -0.99926
C         54.00338        48.12643        -1.22808
C         55.16233        50.33761        -0.80943
C         53.98787        50.99324        -0.90424
C         57.44669        24.59557        -1.35692
C         56.25040        25.25833        -0.97472
C         57.43754        27.39306        -1.19554
C         56.24957        26.67677        -0.88493
C         57.43359        28.86075        -1.16945
C         56.25770        29.56621        -0.61616
C         57.57910        31.75826        -0.61242
C         56.29569        30.95512        -0.42205
C         57.56875        32.96806         0.30506
C         56.38190        33.79342         0.31709
C         57.58267        35.99992         0.82560
C         56.38089        35.21793         0.55044
C         57.62114        37.40631         0.55780
C         56.39650        38.11067         0.30503
C         57.67089        40.27371         0.11147
C         56.40604        39.53462         0.15875
C         57.72673        41.68296        -0.11782
C         56.42543        42.38603        -0.25245
C         58.10688        44.72338        -0.54670
C         56.28791        43.68130        -0.94257
C         57.80367        46.07913        -0.24066
C         56.58091        46.73986        -0.63334
C         57.57486        48.82736         0.15009
C         56.50063        48.13644        -0.47538
C         58.61204        25.29717        -1.59132
C         59.89631        27.42064        -1.55197
C         58.63509        26.70996        -1.49412
C         59.99156        28.74822        -1.29516
C         58.78484        29.58411        -1.18102
C         59.82208        31.16062         0.41212
C         58.79906        30.86913        -0.45871
C         59.77792        32.31909         1.22009
C         58.67099        33.17041         1.14975
C         59.90539        36.17543         1.63203
C         58.71984        35.45689         1.46348
C         59.98231        37.49231         1.18680
C         58.84070        38.14232         0.68322
C         60.08924        40.29475         0.39114
C         58.87637        39.56851         0.37373
C         60.11475        41.67583         0.26402
C         58.93484        42.41861         0.04317
C         59.87629        44.59875         1.03268
C         58.99129        43.90540         0.15381
C         59.82055        45.97827         1.15046
C         58.78140        46.75390         0.54797
C         58.64333        48.15750         0.71824
O         38.10739        53.63195         1.57399
O         37.26132        46.18730        -1.89102
O         27.79920        42.01543         1.60357
O         46.56206        39.05742         2.19716
O         39.16524        26.38805         2.17306
O         55.77875        42.41940         1.09857
O         42.19834        42.30065         2.00928
O         25.64865        40.79107         2.13964
O         30.41208        40.88724        -2.01069
O         57.94342        29.53115        -2.38251
O         34.52465        37.58382         1.77778
O         31.07034        33.38028        -1.38381
O         43.13875        27.09450        -0.58377
O         43.66185        46.48314         1.28415
O         54.55275        46.45185         0.55081
O         52.65380        49.69044        -2.55658
O         45.75919        41.75167        -1.32038
O         25.73739        44.14643        -0.75554
O         30.98777        51.03088        -1.59096
O         38.90548        38.84085         2.25128
O         52.48016        32.46564        -1.38644
O         41.88071        54.95644        -2.28655
O         28.09457        39.87842        -1.55657
O         24.71758        31.04905         1.44689
O         32.58837        27.23753        -2.44194
O         39.52845        22.43802         1.33165
O         52.15014        44.47385         0.98432
O         41.72312        21.82052        -1.41553
O         50.13474        23.92134        -1.14058
O         48.47084        33.42610         2.23723
O         53.79165        42.85224        -1.77495
O         29.65542        27.27404        -2.56543
O         40.83755        29.04079         2.50447
O         32.72090        32.29931         1.55191
O         45.85607        22.59282         2.15573
O         35.69379        40.06926         1.89263
O         54.91393        48.37294        -2.33191
O         58.64875        34.20741         2.09314
O         34.65046        35.82384        -1.26260
O         57.41006        44.15404        -1.62165
O         38.25266        24.69525        -2.03689
H         37.48838        24.37898        -2.56544
O         57.55853        32.25624        -1.98502
H         57.57681        31.45779        -2.56597
O         41.66877        31.57627         3.05333
H         40.74032        31.60398         3.37890
O         38.78648        31.01307         2.84734
H         39.18439        30.21461         3.26040
O         30.25304        23.14992         0.76331
H         29.35962        23.51397         0.94107
O         46.43393        29.53609         2.62335
H         47.20288        30.06493         2.92788
O         43.84068        29.60338        -1.02213
H         43.63929        28.67898        -1.31516
O         30.09520        48.68734        -2.21940
H         30.57763        49.44639        -2.62712
O         41.30317        16.40733         1.59447
H         40.46039        16.86042         1.81195
O         41.20468        52.33904        -2.63207
H         41.30617        53.27194        -2.94545
O         27.93479        31.41982         1.82260
H         27.01235        31.49425         2.15265
O         44.85214        45.89192        -2.12176
H         45.52890        45.34053        -2.56879
O         37.02920        35.11145        -1.50402
H         36.17216        35.11063        -1.99659
O         33.06955        41.51631        -2.21234
H         32.18721        41.24190        -2.57028
O         25.26410        29.09214        -2.32709
H         26.02494        28.64863        -2.76101
O         33.19870        24.56926        -2.88769
H         33.10277        25.51637        -3.15864
O         51.53140        25.04426         2.02393
H         52.32713        25.51810         2.34568
O         24.95434        46.44331         3.21008
H         25.79305        46.93709         3.33130
O         30.15557        45.95874        -2.23823
H         30.08337        46.90771        -2.51942
O         50.07204        45.62869        -2.55537
H         49.20309        45.20558        -2.72442
H         22.06420        26.63626        -0.36538
H         22.03028        29.05669         0.18417
H         21.92718        31.13204        -0.35499
H         21.98319        33.54817        -0.16922
H         21.97225        35.38245         0.39232
H         21.98061        37.79964         0.61762
H         22.02509        39.72759         0.96554
H         22.05836        42.12103         1.22548
H         22.09332        44.13958         1.47908
H         22.30382        46.53033         1.93899
H         25.49341        23.40511        -1.08375
H         23.34851        24.56012        -0.76133
H         25.51120        49.85920         0.97372
H         23.59508        48.65960         1.85491
H         27.14773        22.55962        -1.66581
H         27.10225        50.78732         0.65073
H         29.25858        21.35352        -1.47794
H         29.03800        52.04324        -0.04539
H         32.89014        19.17676        -0.69101
H         30.80989        20.45214        -0.54583
H         32.88679        53.99646         0.97954
H         30.75797        52.88809         0.58314
H         34.51124        18.21132        -1.13766
H         34.47729        55.02766         0.47779
H         36.59326        16.96917        -1.04660
H         36.52803        56.28582         0.40065
H         40.37045        14.80297        -0.67240
H         38.32224        16.03456        -1.17591
H         40.36579        58.47054         0.01013
H         38.30072        57.21923         0.48203
H         42.83233        14.80947        -0.34358
H         42.74778        58.48256        -0.73252
H         44.92883        16.05049        -0.28337
H         44.84717        57.28702        -1.01659
H         48.63268        18.18567         0.30412
H         46.53333        16.96672         0.16786
H         48.59165        55.11670        -0.64027
H         46.49957        56.33186        -0.78050
H         50.25142        19.19292         0.74830
H         50.19992        54.18023        -0.53664
H         52.35990        20.42647         0.61251
H         52.30744        52.98646        -0.72110
H         55.90392        22.54776        -1.00897
H         53.85528        21.31506        -0.50711
H         56.05700        50.91586        -0.53623
H         53.98713        52.07393        -0.70032
H         57.46583        23.50221        -1.45046
H         57.51777        49.91783         0.27144
H         59.53702        24.76073        -1.84647
H         60.80918        26.82377        -1.69621
H         60.97816        29.22718        -1.21533
H         60.68043        30.47913         0.50315
H         60.57504        32.52501         1.94436
H         60.75919        35.70267         2.13384
H         60.92587        38.03698         1.31698
H         61.04202        39.77271         0.55006
H         61.07509        42.20332         0.35084
H         60.63231        44.03692         1.59970
H         60.55850        46.49533         1.78061
H         59.39701        48.71241         1.29474
