         277
 CSIRO Nanostructure Databank - Neutral Graphene Oxide Data Set
C         30.39023        31.96267         0.10197
C         30.44927        33.24146         0.17686
C         30.68712        36.19256         1.34157
C         30.61528        37.42983         1.42744
C         30.93759        40.65330         2.27655
C         31.06680        41.88869         2.35056
C         32.63962        28.92785        -0.04457
C         31.60646        29.65867        -0.07665
C         32.77855        31.76195        -0.30224
C         31.38926        31.03202        -0.15355
C         32.85743        33.01243         0.63168
C         31.61438        33.83547         0.87347
C         32.98301        35.95146         1.15625
C         31.77261        35.28692         1.10598
C         33.08770        37.40997         1.48776
C         31.80769        38.24066         1.71489
C         33.16086        40.42560         1.31144
C         31.82123        39.72248         1.56600
C         33.35431        41.85074         1.73167
C         32.25499        42.66752         2.16074
C         33.34389        44.82134         1.54701
C         32.51594        44.05409         2.11005
C         35.37341        27.30053        -0.58787
C         35.23240        28.65775         0.04263
C         33.97171        29.47347        -0.16760
C         35.30725        31.55941        -0.44893
C         33.99609        30.85612        -0.17357
C         35.34063        33.01423         0.03587
C         34.19265        33.71885         0.68385
C         35.21198        35.92755        -0.07324
C         34.31918        35.23541         1.02151
C         35.24112        37.50430         0.04968
C         34.44395        38.09273         1.25110
C         35.51350        40.26122         0.59766
C         34.37544        39.61846         1.02994
C         35.62101        41.71385         0.70111
C         34.65998        42.35924         1.51026
C         35.56159        44.78913         0.18973
C         34.70218        44.53101         1.27021
C         35.72568        46.12790        -0.31705
C         37.71889        26.73797        -0.96353
C         36.33489        26.51639        -0.64897
C         37.70476        28.98125        -0.82569
C         36.52798        29.43064        -0.28180
C         37.78547        31.62544        -0.05869
C         36.51519        30.84856         0.24398
C         37.78426        32.98750        -0.18753
C         36.53000        33.77433        -0.51948
C         37.76635        35.89853        -0.25602
C         36.58092        35.25329        -0.14558
C         37.93890        37.35514         0.08317
C         36.64532        38.13800         0.11181
C         38.00602        40.26390         0.09567
C         36.70578        39.49284         0.22857
C         37.77765        41.65125        -0.51188
C         36.65864        42.45993         0.07405
C         37.47858        44.33900        -1.30981
C         36.57972        43.84917        -0.21973
C         37.75012        47.54295        -0.78490
C         36.33065        47.19018        -0.45208
C         40.16776        24.44513         0.47528
C         39.12393        25.10124         0.28826
C         40.20453        27.12470        -0.47854
C         38.87381        26.34837        -0.33722
C         40.24471        28.67624        -0.53654
C         39.01063        29.55122        -0.46750
C         40.28746        31.57048         0.28740
C         39.03292        30.86974        -0.06576
C         40.33967        33.07506         0.12947
C         39.02977        33.77397        -0.10313
C         40.30521        35.86819        -0.64088
C         38.99701        35.13516        -0.75787
C         40.29315        37.29143        -1.14580
C         38.98890        38.02699        -0.79422
C         40.31232        40.19441        -0.99797
C         39.02482        39.50841        -0.76312
C         40.28518        41.63902        -1.41510
C         38.91751        42.30323        -1.23705
C         40.01967        44.46594        -0.58467
C         38.91373        43.81171        -1.49626
C         39.94860        46.00672        -0.50024
C         38.60955        46.46364        -0.12916
C         39.74152        48.64581         0.10603
C         38.50470        48.62514        -0.05385
C         42.76828        24.39249         0.26746
C         41.46323        24.98687         0.20065
C         42.73159        27.09763        -0.07224
C         41.48100        26.36410        -0.14775
C         42.72608        28.45569         0.23000
C         41.62188        29.38601        -0.33855
C         42.77637        31.65483         0.13252
C         41.55504        30.80026         0.27266
C         42.80436        32.96421        -0.62310
C         41.53731        33.75765        -0.39386
C         42.79815        35.86682        -0.98738
C         41.51065        35.14913        -0.65825
C         42.82353        37.39127        -1.14781
C         41.54019        38.03147        -0.57473
C         42.75699        40.23307        -0.75745
C         41.53243        39.53438        -0.82282
C         42.73086        41.71109        -0.59113
C         41.43277        42.41958        -0.77892
C         42.56734        44.65896        -0.20782
C         41.44442        43.92770        -1.02438
C         42.41758        46.11062        -0.77445
C         41.10150        46.77527        -0.36149
C         42.09717        48.70803         0.96203
C         41.06155        48.12460         0.22144
C         43.85386        24.96171         0.11520
C         45.25292        26.99900         0.62559
C         44.14714        26.39067        -0.23266
C         45.23277        28.56531         0.61520
C         43.93508        29.03777         0.76931
C         45.22911        31.78280         0.52461
C         43.89581        31.26583         0.77713
C         45.27391        33.05113         0.03652
C         43.96842        33.81533        -0.02903
C         45.34433        35.92242        -0.43353
C         44.08888        35.16689        -0.70453
C         45.27288        37.38106        -0.34953
C         44.06995        38.03807        -0.56655
C         45.28115        40.23325        -0.51990
C         43.97986        39.50832        -0.24160
C         45.27172        41.72936        -0.64018
C         43.98696        42.55455        -0.85597
C         45.07231        44.58930         0.22832
C         43.94665        43.96797        -0.23028
C         45.14861        46.16806         0.34861
C         43.89662        46.82899         0.74570
C         43.18019        47.81489         0.96943
C         47.59989        27.37262         0.69335
C         46.67861        26.63563         0.29475
C         47.68340        28.80168         0.82201
C         46.40885        29.39891         0.77385
C         47.69793        31.54176         0.21690
C         46.44331        30.94946         0.93025
C         47.74225        33.08853         0.28833
C         46.53225        33.72160        -0.44614
C         47.78066        35.89176        -0.00846
C         46.51108        35.22391        -0.23721
C         47.71806        37.35171         0.41620
C         46.49068        38.10855        -0.04811
C         47.75101        40.22950         0.01734
C         46.53213        39.51226        -0.10845
C         47.80033        41.72109        -0.26774
C         46.45616        42.38640         0.00195
C         47.63909        44.47219         0.80636
C         46.33963        43.80155         0.45687
C         47.37928        45.81397         1.18962
C         46.31919        46.45738         1.26990
C         50.13454        29.06959         1.52768
C         48.89310        29.55293         1.05188
C         50.17029        31.71672         0.92641
C         48.96149        30.94233         0.80402
C         50.25395        33.02722         0.39922
C         49.04638        33.68399        -0.26754
C         50.24829        35.95292        -0.07630
C         48.97116        35.20845        -0.06312
C         50.22581        37.42185         0.18241
C         49.01215        38.11552         0.20626
C         50.21972        40.29355         0.31148
C         48.99284        39.54766         0.19903
C         50.20617        41.74215         0.41633
C         48.98640        42.40767         0.38843
C         50.12291        44.31031         1.17893
C         48.83752        43.80408         0.79206
C         51.19709        29.70731         1.77614
C         52.47581        31.95920         1.53562
C         51.36995        31.07283         1.52197
C         52.57011        33.13638         1.13090
C         51.61603        33.65842         0.07178
C         52.67006        36.02913         0.42230
C         51.55986        35.16924        -0.04299
C         52.56349        37.26766         0.39625
C         51.44725        38.15935         0.35734
C         52.53768        40.41585         0.75426
C         51.43151        39.54810         0.47849
C         52.62651        41.62498         1.00835
C         51.57014        42.57462         0.49355
C         51.25267        43.81257         1.29984
O         32.19027        32.96007         1.90728
O         40.31334        27.83797        -1.74200
O         46.14781        42.65563         1.39854
O         43.79796        30.15038         1.61024
O         35.13841        43.50849         2.16282
O         37.05238        45.09792        -2.17059
O         37.85357        41.63286        -1.97743
O         43.00518        46.49482        -1.78368
O         41.85944        42.08559         0.56704
O         43.57142        35.23428        -2.07852
O         37.79523        27.90799        -1.73306
O         32.12590        40.22093         0.25427
O         39.64575        33.79918         1.21924
O         45.50048        40.88627        -1.81010
O         40.87760        31.01346         1.53467
O         51.03006        35.59792        -1.31284
O         32.57386        37.74908         2.83453
O         38.44255        38.77948        -1.91665
O         35.18676        33.00827         1.48532
O         38.52283        37.43575         1.43171
H         37.89961        37.00475         2.05873
O         44.49558        26.52330        -1.59446
H         43.85228        26.03363        -2.14652
O         39.21344        44.04611        -2.87155
H         38.52397        44.67468        -3.20415
O         42.87548        37.71743        -2.55219
H         43.37714        36.99563        -2.99614
O         37.96296        47.61348        -2.16392
H         37.41741        48.33100        -2.54398
O         34.98380        35.36058         2.28279
H         35.32734        34.46614         2.52679
O         34.55423        35.60476        -1.32502
H         35.14271        35.01309        -1.86795
O         47.70898        33.51099         1.66015
H         47.20495        32.85410         2.19862
O         41.56196        37.81649         0.85870
H         40.63788        37.78077         1.20016
O         44.97901        26.62974         1.97105
H         45.73168        26.89532         2.53846
O         42.99106        32.66933        -2.01424
H         43.13393        33.52573        -2.48651
O         42.19326        44.70434         1.19661
H         42.66475        43.98103         1.66542
O         40.34164        37.20799        -2.58988
H         39.87242        38.00692        -2.93489
O         38.79896        34.92876        -2.20254
H         39.24471        35.68746        -2.66722
O         52.02174        33.14602        -1.19966
H         52.78084        33.67632        -1.52232
O         35.54259        31.44461        -1.85939
H         34.84529        31.95914        -2.32323
O         47.61705        31.13919        -1.16767
H         48.39162        31.53765        -1.63343
O         34.61736        38.05726        -1.11647
H         34.44941        37.31547        -1.74798
O         40.56504        41.68906        -2.84718
H         39.72172        41.49787        -3.31463
O         48.01602        41.88246        -1.69854
H         48.86525        41.45420        -1.93637
O         38.06964        45.88124         0.91237
H         38.68046        45.16952         1.26881
O         35.23282        37.92557         2.44716
H         34.61539        37.75772         3.19393
O         51.88041        42.93965        -0.82314
H         52.68098        43.50318        -0.82445
O         49.17344        33.38408        -1.67600
H         49.97830        33.85206        -2.00385
O         42.11447        29.65931        -1.66911
H         41.85250        28.90319        -2.24437
O         45.52370        46.62121        -0.93728
H         44.70445        46.73274        -1.48887
O         41.69820        44.21408        -2.38368
H         41.25678        43.53671        -2.94822
O         38.57914        40.44040         1.40787
H         38.60901        39.55614         1.84019
O         36.38155        33.78893        -1.97672
H         37.23396        34.14958        -2.34711
O         43.94531        42.84414        -2.27382
H         44.42210        42.12227        -2.74529
O         43.84171        39.56593         1.22050
H         43.04084        39.03370         1.45183
O         46.59499        31.16988         2.36087
H         45.77380        30.85134         2.79635
O         43.60319        34.14626         1.33737
H         43.36745        33.32074         1.81370
O         39.74162        43.94967         0.74330
H         40.58895        44.05703         1.26263
O         47.57686        37.27772         1.88347
H         47.36824        38.17774         2.21399
O         32.83972        32.33559        -1.63788
H         32.53158        31.65961        -2.27850
O         36.39252        30.86758         1.66875
H         35.92143        30.05026         1.95973
O         46.57483        33.51388        -1.87225
H         46.64063        32.54213        -2.02915
O         35.27597        28.42126         1.47630
H         34.40271        28.06451         1.74939
