         732
 CSIRO Nanostructure Databank - Neutral Graphene Oxide Data Set
C         23.22046        25.22236        -3.30839
C         22.10964        25.99153        -3.41572
C         23.13283        27.92334        -2.30760
C         22.01945        27.30622        -2.82740
C         23.17040        29.29702        -1.83776
C         22.09329        30.15539        -2.03741
C         23.04410        31.93669        -0.65696
C         22.06676        31.47129        -1.52776
C         23.00168        33.25846        -0.07175
C         21.84869        34.04331        -0.15560
C         22.89157        36.01090         0.84918
C         21.79718        35.38803         0.26681
C         22.90997        37.42355         1.17326
C         21.70975        38.16070         1.22588
C         22.91802        40.26247         1.51319
C         21.71358        39.53515         1.40924
C         22.92249        41.70732         1.62738
C         21.71560        42.43612         1.65356
C         22.91232        44.55503         1.75705
C         21.71340        43.82103         1.71460
C         22.89805        46.00998         1.76918
C         21.68119        46.72400         1.70093
C         22.86340        48.82620         1.72550
C         21.66759        48.11557         1.68526
C         25.76038        23.64069        -3.06630
C         25.70501        25.03170        -2.67794
C         24.35097        25.66755        -2.41012
C         25.64864        27.81921        -1.80189
C         24.41794        27.18482        -2.37010
C         25.51771        29.08236        -1.04695
C         24.32950        29.77426        -1.09211
C         25.41460        31.66529         0.30838
C         24.16555        31.03690        -0.32285
C         25.38256        33.11320         0.59311
C         24.19760        33.81722         0.54067
C         25.38246        35.94593         1.38529
C         24.09960        35.20199         1.08585
C         25.38995        37.42883         1.36516
C         24.14563        38.12689         1.35987
C         25.39439        40.26276         1.59889
C         24.15385        39.55109         1.49005
C         25.39544        41.69607         1.69885
C         24.15630        42.41580         1.70071
C         25.38645        44.56284         1.85782
C         24.15590        43.84978         1.77138
C         25.38828        46.01297         1.90973
C         24.12015        46.72637         1.82849
C         25.34181        48.89445         1.82673
C         24.10165        48.15222         1.79745
C         25.39002        50.24650         1.52435
C         28.18832        23.53869        -2.73956
C         26.92327        22.92114        -3.04207
C         28.20230        25.05096        -2.66483
C         26.87280        25.67697        -2.31751
C         28.02235        27.54275        -1.18576
C         26.87114        26.98892        -1.69851
C         27.95718        28.78376        -0.37341
C         26.61114        29.45797        -0.05430
C         27.90409        31.68227         0.35562
C         26.70845        30.97652         0.15328
C         27.93122        33.08672         0.63096
C         26.65199        33.72331         1.15111
C         27.90183        35.98608         0.97436
C         26.62720        35.22680         0.97759
C         27.86791        37.37126         1.52165
C         26.59667        38.12803         1.45704
C         27.87524        40.25980         1.71989
C         26.62435        39.54977         1.58973
C         27.86127        41.68457         1.83747
C         26.62372        42.40069         1.79845
C         27.84955        44.53014         2.00283
C         26.62461        43.84110         1.89430
C         27.87226        46.00209         2.31220
C         26.57388        46.71457         2.06100
C         27.87653        48.90713         1.89162
C         26.59259        48.20563         2.31488
C         27.83417        50.31096         1.70272
C         26.59972        50.96084         1.53800
C         30.64025        20.77032        -3.15039
C         29.46726        21.41735        -2.98330
C         30.64733        23.52828        -2.41506
C         29.38812        22.84314        -2.72001
C         30.62094        24.88431        -1.97342
C         29.37371        25.60872        -1.90036
C         30.53773        27.61133        -1.07649
C         29.31179        26.87080        -1.32501
C         30.48754        28.97305        -0.76994
C         29.24642        29.53092        -0.18105
C         30.45675        31.76769         0.19577
C         29.20350        30.96262         0.26685
C         30.40586        33.23435         0.37013
C         29.16039        33.85432         0.65167
C         30.39290        36.00945         0.92404
C         29.18361        35.26154         0.91584
C         30.40988        37.43150         1.20881
C         29.16678        38.11110         1.61222
C         30.34811        40.27628         1.77702
C         29.12489        39.58278         1.67703
C         30.31630        41.67697         2.03862
C         29.09556        42.38420         2.00887
C         30.31139        44.54185         1.94384
C         29.09635        43.83331         2.02741
C         30.32247        45.94036         1.50203
C         29.03082        46.71294         1.63241
C         30.33009        48.81664         1.48397
C         29.09528        48.18854         1.72836
C         30.40766        50.28598         1.56776
C         29.09791        51.07810         1.65363
C         30.29692        53.04454         0.76440
C         29.13500        52.45207         1.13216
C         33.10605        19.25342        -2.66724
C         33.14153        20.65748        -2.65865
C         31.96546        21.48410        -3.17048
C         33.07701        23.48435        -2.12280
C         31.87565        22.85058        -2.52295
C         33.03904        24.78967        -1.62514
C         31.82082        25.51653        -1.58224
C         33.00721        27.62557        -1.10946
C         31.81303        26.94017        -1.26092
C         33.02825        29.09247        -1.06655
C         31.67348        29.81127        -0.96052
C         32.88518        31.81873         0.09256
C         31.64185        31.30128        -0.62501
C         32.89919        33.26919         0.31060
C         31.62867        33.96228         0.37284
C         32.88460        36.12931         0.45151
C         31.61292        35.35183         0.62908
C         32.86357        37.50075         1.07088
C         31.61479        38.15983         1.27416
C         32.82924        40.24122         1.79059
C         31.61161        39.56795         1.63326
C         32.84950        41.62447         2.32266
C         31.55522        42.37078         2.40909
C         32.85550        44.60106         2.00896
C         31.58212        43.92034         2.28366
C         32.83874        45.96560         1.63346
C         31.59662        46.67039         1.45118
C         32.79460        48.78407         1.11414
C         31.56211        48.07768         1.30688
C         32.78601        50.21020         0.85552
C         31.59301        50.96762         1.02153
C         32.74095        52.98677         0.20384
C         31.56035        52.33765         0.71008
C         32.76149        54.37521        -0.09182
C         35.46046        19.14071        -2.06350
C         34.24527        18.51099        -2.37036
C         35.51637        20.55797        -2.02689
C         34.34137        21.30417        -2.31145
C         35.58829        23.42769        -1.73669
C         34.40054        22.81188        -2.43787
C         35.56066        24.74919        -1.29529
C         34.24737        25.42824        -0.99441
C         35.45663        27.54206        -0.51151
C         34.32333        26.91897        -1.30885
C         35.45096        29.01737        -0.34792
C         34.26775        29.81214        -0.73108
C         35.44542        31.82018         0.29481
C         34.19514        31.07759         0.00129
C         35.37964        33.19240         0.64659
C         34.12080        33.92704         0.59012
C         35.33599        36.03689         0.99148
C         34.12746        35.33346         0.76995
C         35.31229        37.44865         1.12788
C         34.08701        38.16657         1.26840
C         35.30197        40.28493         1.75705
C         34.08852        39.57815         1.62847
C         35.36395        41.69849         1.90821
C         34.14379        42.40680         2.35812
C         35.39126        44.59094         1.92596
C         34.14483        43.94344         2.50394
C         35.38978        46.10718         1.94685
C         34.06438        46.70920         1.49737
C         35.30670        48.87035         1.13867
C         34.02315        48.06520         1.18593
C         35.14961        50.03987         0.18952
C         33.94144        50.86189         0.37545
C         35.10930        52.85451        -0.56989
C         33.93457        52.22645        -0.00380
C         35.07183        54.24603        -0.87813
C         33.88840        54.98104        -0.60335
C         37.98500        16.28972        -2.14021
C         36.79450        16.94015        -2.18604
C         37.98400        19.07016        -1.49405
C         36.66427        18.33195        -1.73474
C         37.98505        20.53651        -1.62234
C         36.78831        21.24541        -1.79536
C         38.01746        23.35427        -1.39225
C         36.79959        22.68093        -1.69355
C         37.97781        24.72851        -1.00946
C         36.76634        25.42181        -0.91738
C         37.89780        27.50286        -0.13167
C         36.76356        26.82650        -0.50587
C         37.84894        28.91948         0.41856
C         36.77640        29.74484        -0.30441
C         37.86878        31.77334         0.69416
C         36.67863        31.14301         0.26365
C         37.80462        33.13224         1.07147
C         36.58776        33.87119         0.98600
C         37.77535        36.01504         1.38589
C         36.57997        35.30651         1.14470
C         37.83065        37.42827         1.33971
C         36.59244        38.23000         1.01881
C         37.83386        40.29196         1.59515
C         36.58070        39.49568         1.86827
C         37.80846        41.69499         1.54921
C         36.56334        42.41021         1.72170
C         37.78672        44.55150         1.31590
C         36.54214        43.86632         1.66697
C         37.78164        45.94804         1.15019
C         36.59164        46.72624         1.26201
C         37.69958        48.73959         0.32088
C         36.55365        48.06339         0.86012
C         37.65761        50.02104        -0.24897
C         36.35321        50.67995        -0.41968
C         37.49753        52.70511        -1.24828
C         36.32142        52.11291        -0.75711
C         37.39418        54.06780        -1.79589
C         36.21875        54.88708        -1.47491
C         37.45022        56.91221        -2.12895
C         36.25769        56.24576        -1.78440
C         40.52421        14.80548        -1.97470
C         40.47837        16.20757        -1.78486
C         39.23624        16.94421        -1.81263
C         40.49617        19.05452        -1.54653
C         39.25339        18.33224        -1.62662
C         40.47580        20.48352        -1.50594
C         39.25277        21.21148        -1.54360
C         40.49469        23.32181        -1.22696
C         39.24928        22.63301        -1.43422
C         40.47826        24.80215        -1.10993
C         39.22178        25.39016        -0.57560
C         40.43174        27.64058        -0.19057
C         39.20123        26.81659        -0.11491
C         40.41387        28.98953         0.18348
C         39.16819        29.67340         0.40901
C         40.37006        31.71494         1.06525
C         39.14255        31.03534         0.71898
C         40.33083        33.11082         1.45937
C         39.01845        33.77194         1.59399
C         40.28653        36.00032         1.72503
C         39.00194        35.29322         1.76200
C         40.28703        37.40500         1.61993
C         39.03810        38.12083         1.50873
C         40.28429        40.25982         1.41968
C         39.05000        39.56856         1.50104
C         40.27880        41.68621         1.30735
C         39.03928        42.40640         1.35253
C         40.24742        44.49028         0.87894
C         39.01732        43.81959         1.19777
C         40.26314        45.87917         0.62616
C         39.05088        46.64783         0.91344
C         40.16316        48.64573        -0.27417
C         39.01508        48.10714         0.47131
C         40.04054        49.92831        -0.83771
C         38.82443        50.66591        -0.76456
C         39.95984        52.68830        -1.70011
C         38.75300        52.01203        -1.28737
C         39.97426        54.08355        -2.03135
C         38.69795        54.79898        -2.19137
C         39.94187        56.96104        -2.32704
C         38.67997        56.26328        -2.19879
C         39.97698        58.37296        -2.39390
C         42.91835        14.78880        -1.58976
C         41.72655        14.11862        -1.91292
C         42.92423        16.16568        -1.37290
C         41.70311        16.91008        -1.53881
C         43.06055        19.03275        -1.48889
C         41.71300        18.32904        -1.47440
C         42.98547        20.48335        -1.05179
C         41.78859        21.22977        -1.61673
C         42.87518        23.39002        -0.68852
C         41.68579        22.65842        -1.18114
C         43.07762        24.83534        -1.11304
C         41.73736        25.59412        -1.08467
C         42.98594        27.76897        -0.34884
C         41.67551        27.04346        -0.67265
C         42.88333        29.01914         0.40230
C         41.66107        29.68150         0.47877
C         42.81550        31.67032         1.44495
C         41.60115        31.02391         1.02516
C         42.73051        33.03510         2.08552
C         41.48602        33.81838         1.75434
C         42.71958        35.98315         1.96744
C         41.50181        35.26683         1.85924
C         42.75179        37.40237         1.80787
C         41.52300        38.11669         1.62170
C         42.75799        40.22365         1.33469
C         41.52533        39.53443         1.45767
C         42.75925        41.64415         1.10778
C         41.50807        42.37413         1.12418
C         42.68929        44.47664         0.57374
C         41.48822        43.77491         0.86276
C         42.66562        45.81475         0.15487
C         41.43137        46.54272         0.18311
C         42.57345        48.49636        -0.80083
C         41.38308        47.90026        -0.29696
C         42.50620        49.78779        -1.49732
C         41.17921        50.52787        -1.55156
C         42.41543        52.62516        -2.08570
C         41.19878        51.98360        -1.75839
C         42.42145        54.05487        -2.33114
C         41.17252        54.77482        -2.28338
C         42.36105        56.92764        -2.71024
C         41.15741        56.22133        -2.45550
C         42.34768        58.31869        -2.82691
C         41.16354        59.04330        -2.64316
C         45.24506        16.11787        -0.33480
C         44.10456        16.86129        -0.84792
C         45.19280        18.91317         0.02092
C         44.12325        18.22959        -0.78771
C         45.29601        20.40057        -0.19283
C         44.05489        21.12263        -0.48482
C         45.33270        23.32100        -0.08089
C         44.06378        22.59975        -0.28437
C         45.36566        24.73646        -0.01289
C         44.22131        25.49752        -0.36505
C         45.49511        27.63310         0.20069
C         44.26047        26.96361        -0.35555
C         45.39431        28.97503         0.78885
C         44.05318        29.51655         1.20797
C         45.28322        31.65697         1.76988
C         44.04316        31.00861         1.44260
C         45.26878        33.06743         2.32687
C         44.01171        33.80971         1.95312
C         45.28930        35.98175         2.31988
C         43.96747        35.22772         2.22523
C         45.25705        37.47410         2.13613
C         43.98130        38.13528         1.79259
C         45.23333        40.21110         1.19444
C         43.99482        39.51555         1.47411
C         45.19439        41.56844         0.76394
C         43.96417        42.30107         0.84119
C         45.06168        44.31797        -0.14410
C         44.02002        43.80896         0.82219
C         45.07653        45.77393        -0.41651
C         43.88292        46.48141        -0.28500
C         45.02371        48.52180        -1.12905
C         43.81919        47.84868        -0.72041
C         44.98855        49.87614        -1.54760
C         43.73869        50.55952        -1.70555
C         44.89782        52.55897        -2.64665
C         43.65770        51.90084        -2.09299
C         44.88481        54.05939        -2.54760
C         43.63310        54.73599        -2.56247
C         44.89162        56.88900        -2.55007
C         43.63874        56.17942        -3.00703
C         46.40253        16.73820         0.03469
C         47.70729        18.85544         0.23004
C         46.51427        18.17733         0.04019
C         47.79355        20.34722        -0.02678
C         46.46187        21.05637         0.07887
C         47.73096        23.19578         0.78849
C         46.45308        22.50919         0.37235
C         47.77915        24.66119         0.72788
C         46.60642        25.39972         0.42668
C         47.81772        27.47155         1.01427
C         46.64665        26.80384         0.57208
C         47.80524        28.88609         1.21807
C         46.55250        29.60334         1.21002
C         47.76495        31.70690         1.74761
C         46.50902        30.99539         1.63380
C         47.74425        33.11770         1.85493
C         46.53762        33.84477         2.03515
C         47.77837        35.99126         1.90143
C         46.53665        35.24586         2.04312
C         47.79088        37.40301         1.68480
C         46.55174        38.18434         1.80033
C         47.66539        40.17893         0.81049
C         46.48469        39.53744         1.21372
C         47.61970        41.52165         0.35893
C         46.39396        42.19456         0.30990
C         47.50359        44.17086        -1.01916
C         46.28599        43.50842        -0.37914
C         47.50603        45.68975        -0.93481
C         46.29460        46.41226        -0.82116
C         47.48781        48.50562        -1.34403
C         46.27217        47.82126        -1.08589
C         47.47028        49.90721        -1.63821
C         46.22098        50.58174        -1.79520
C         47.40076        52.65845        -2.32468
C         46.19044        51.93652        -2.17646
C         47.36510        54.07049        -2.58236
C         46.09567        54.76622        -2.56439
C         46.05241        56.21125        -2.42809
C         50.12351        18.85878         0.68371
C         48.95878        18.18106         0.44915
C         50.17237        20.29624         0.81817
C         48.97838        21.03674         0.63916
C         50.18174        23.11810         1.18514
C         48.99134        22.43044         0.82425
C         50.19367        24.55639         1.32853
C         49.00273        25.30837         1.06948
C         50.23005        27.41046         1.50945
C         49.01930        26.72927         1.20649
C         50.23389        28.83342         1.62257
C         49.01056        29.56384         1.52978
C         50.26408        31.64869         1.82796
C         49.00719        30.98815         1.68432
C         50.30460        33.11752         1.72179
C         49.00350        33.86545         1.71121
C         50.24496        36.08517         2.24029
C         48.99597        35.30820         1.92333
C         50.23401        37.42812         1.53148
C         49.01404        38.06103         1.34085
C         50.20996        40.18037         0.61552
C         48.92816        39.37294         0.58333
C         50.16606        41.54049         0.08813
C         48.89234        42.33546         0.25982
C         49.96156        44.23844        -0.95622
C         48.82106        43.57981        -0.59270
C         49.96135        45.64707        -1.32101
C         48.72387        46.37308        -1.18844
C         49.96004        48.49417        -1.46974
C         48.72415        47.79433        -1.33196
C         49.94519        49.92276        -1.69071
C         48.68799        50.60546        -1.84517
C         49.87612        52.70406        -2.42014
C         48.65879        51.99125        -2.17923
C         49.80119        54.07360        -2.74473
C         48.58110        54.74398        -2.79568
C         52.64089        20.26916         1.27227
C         51.37366        20.96903         1.21814
C         52.52983        23.04481         2.01782
C         51.35952        22.36654         1.42442
C         52.61733        24.52275         1.93632
C         51.41205        25.24085         1.64169
C         52.67430        27.36307         1.83983
C         51.43564        26.66888         1.68220
C         52.69295        28.79009         1.85761
C         51.46662        29.52113         1.82712
C         52.75965        31.65751         2.23916
C         51.46678        30.94306         1.90794
C         52.76376        33.13574         1.91477
C         51.57669        33.83340         1.96805
C         52.84669        36.02052         1.69238
C         51.56228        35.30570         2.08718
C         52.77289        37.43443         1.23626
C         51.51177        38.23093         1.57809
C         52.66830        40.22864         0.53859
C         51.40192        39.53836         0.82151
C         52.61820        41.58269        -0.10465
C         51.30201        42.18682        -0.33246
C         52.48006        44.14675        -1.55817
C         51.23763        43.49003        -1.03055
C         52.46378        45.62879        -1.93654
C         51.17129        46.33723        -1.52510
C         52.45113        48.46632        -1.40444
C         51.17071        47.75500        -1.51077
C         52.42629        49.99421        -1.56933
C         51.14119        50.64142        -1.86878
C         52.37324        52.61670        -2.60356
C         51.14032        52.00321        -2.30228
C         53.79743        20.87135         1.64602
C         55.09857        22.97077         2.42426
C         53.80401        22.22762         2.21284
C         55.10068        24.48083         2.42122
C         53.83819        25.20700         2.09518
C         55.14790        27.32374         1.81431
C         53.88888        26.62465         1.94885
C         55.15502        28.74529         1.63964
C         53.94596        29.49395         1.78371
C         55.18669        31.59766         1.49677
C         53.98158        30.90809         1.77147
C         55.20007        33.03784         1.37343
C         54.01270        33.79960         1.60868
C         55.16725        35.80882         0.80568
C         54.01355        35.18791         1.32432
C         55.08116        37.21015         0.35455
C         53.85888        38.00001         0.65063
C         55.15444        40.17856         0.35583
C         53.85045        39.40136         0.08019
C         55.13985        41.53215        -0.32291
C         53.85514        42.07140        -0.79284
C         55.06745        44.24077        -1.35068
C         53.82231        43.45848        -1.40791
C         55.00668        45.66095        -1.48798
C         53.75353        46.36039        -1.58473
C         54.95410        48.51948        -1.59777
C         53.73813        47.75312        -1.56999
C         54.92136        49.94619        -1.75926
C         53.67687        50.65565        -1.94654
C         53.59767        51.94653        -2.47277
C         57.48532        22.97524         1.72663
C         56.36656        22.28428         2.11586
C         57.54946        24.39147         1.65370
C         56.45482        25.21280         2.30928
C         57.56866        27.26875         1.39767
C         56.36305        26.61383         1.75763
C         57.57981        28.68316         1.21551
C         56.37649        29.43065         1.38779
C         57.60676        31.53924         0.96593
C         56.38627        30.85738         1.27084
C         57.61314        32.95205         0.80597
C         56.39554        33.69499         0.96602
C         57.61124        35.78445         0.34844
C         56.38084        35.09619         0.68045
C         57.63421        37.18414         0.15517
C         56.37122        37.93514         0.04050
C         57.58228        40.10376        -0.16341
C         56.40022        39.41117         0.00231
C         57.59110        41.51810        -0.45706
C         56.32580        42.18773        -0.65352
C         57.52230        44.29639        -1.24215
C         56.29299        43.57455        -1.11051
C         57.46719        45.69133        -1.49076
C         56.23259        46.39646        -1.49473
C         57.42088        48.59055        -1.63231
C         56.20753        47.83847        -1.58856
C         57.35523        49.99690        -1.70011
C         56.14026        50.65467        -1.78841
C         59.90520        24.34896         0.86438
C         58.73869        25.06690         1.23087
C         59.97176        27.17010         0.80060
C         58.77107        26.50444         1.17069
C         60.00095        28.62032         0.73009
C         58.80442        29.36419         0.91362
C         60.03776        31.46834         0.51614
C         58.81793        30.79081         0.79581
C         60.04823        32.90528         0.38186
C         58.83543        33.63610         0.49504
C         60.06554        35.74913         0.06066
C         58.84174        35.05920         0.31171
C         60.07275        37.17825        -0.08306
C         58.85413        37.88174         0.00524
C         60.14798        40.09491        -0.25843
C         58.85514        39.36201         0.00114
C         60.07413        41.52505        -0.66404
C         58.81660        42.20721        -0.73316
C         60.02179        44.27816        -1.28722
C         58.78952        43.59769        -1.09608
C         60.04728        45.71605        -1.65537
C         58.70433        46.44571        -1.77187
C         59.91123        48.58467        -1.59680
C         58.70493        47.91252        -1.64971
C         61.07153        25.01275         0.50103
C         61.11617        26.40512         0.47875
C         61.20117        29.32373         0.46657
C         61.22063        30.70023         0.36787
C         61.25434        33.61892         0.13314
C         61.26649        34.98596        -0.00985
C         61.27232        37.90440        -0.44903
C         61.30481        39.25271        -0.60523
C         61.25716        42.22103        -0.90502
C         61.23374        43.58669        -1.19239
C         61.21804        46.53931        -1.34362
C         61.14980        47.89985        -1.41329
O         29.93420        50.85580         2.83613
O         46.00658        38.16958         3.18567
O         33.62461        41.74311         3.56611
O         39.31215        47.74493         1.86289
O         35.11910        28.10835         0.79994
O         52.47777        49.36314        -0.24122
O         52.87677        22.43797         3.31375
O         55.51739        37.36747        -1.05611
O         42.37145        27.86633        -1.67341
O         53.86283        42.25703        -2.23941
O         28.72504        28.63034         0.87112
O         37.15326        18.57677        -0.37819
O         24.42435        30.91773         1.10719
O         46.77179        22.72589         1.82238
O         44.62278        35.57546         3.56500
O         59.43259        45.97136        -2.95885
O         33.29974        30.99695         1.21839
O         39.29076        25.69527         0.85995
O         37.82443        54.17656        -3.18983
O         51.62686        43.38436        -2.46902
O         38.83300        34.39678         2.90578
O         24.62930        35.34190         2.46052
O         35.43767        49.80048        -1.21969
O         55.05780        23.73096         3.68700
O         40.98232        25.43412        -2.33943
O         59.65901        39.89932         1.11954
O         30.10264        31.09041         1.43400
O         27.12463        35.77265        -0.27935
O         28.54195        37.46853         2.81456
O         25.32909        27.88026        -3.27032
O         45.15643        43.49183        -1.35181
O         45.24688        27.57113        -1.27413
O         29.40991        46.18988         0.33523
O         31.49531        43.20645         3.58602
O         52.50710        35.78772         3.10769
O         52.92480        41.41556         1.33431
O         43.06730        23.10442         0.73320
O         49.72983        33.54955         0.41763
O         41.64744        49.74409        -2.70074
O         32.30794        29.63748        -2.28009
O         37.49892        28.81602         1.81640
H         36.59833        28.40702         1.86562
O         34.64015        23.07455        -3.85981
H         33.91038        22.62682        -4.35962
O         56.94382        25.41564         3.67581
H         56.54866        24.68557         4.21358
O         35.50909        46.52789         3.35428
H         34.99698        45.87291         3.89341
O         28.45976        25.48622        -4.06357
H         27.62427        25.35987        -4.56301
O         43.71628        56.13105        -4.47833
H         44.41650        55.48399        -4.71213
O         44.85251        52.28497        -4.10477
H         44.69407        51.32277        -4.21659
O         34.06094        25.33542         0.44473
H         34.04269        24.38948         0.69822
O         47.43275        43.89105        -2.45416
H         46.47314        43.83119        -2.67701
O         50.12633        36.40082         3.68642
H         50.89727        35.99575         4.14583
O         43.86439        28.90730         2.55206
H         44.40181        29.42379         3.19103
O         49.02334        42.88918         1.62999
H         49.25793        42.15052         2.23278
O         42.58205        32.76653         3.52956
H         43.48415        32.54818         3.88184
O         42.03703        21.32036        -3.09173
H         42.52614        22.15561        -3.26348
O         28.17125        46.12829         3.76160
H         27.57557        45.51289         4.24086
O         32.97599        36.38212        -1.01816
H         33.74806        36.97215        -1.15754
O         26.56573        48.35511         3.78749
H         27.31512        47.80657         4.12889
O         51.66104        38.64235         2.97519
H         51.18521        37.97943         3.53330
O         23.98517        25.28357        -1.04469
H         23.87005        24.31064        -1.02469
O         43.51266        24.76266        -2.49835
H         43.46684        25.66909        -2.87401
O         32.28408        21.73103        -4.59437
H         31.56508        22.29001        -4.96035
O         34.66614        27.05460        -2.71393
H         34.21268        27.84380        -3.07762
O         44.46032        44.22970         2.15336
H         43.78709        43.93733         2.80328
O         37.22129        29.87530        -1.68405
H         36.55407        30.39972        -2.17445
O         34.17779        44.22184         3.94099
H         33.51327        43.61078         4.34739
O         48.11626        20.45651        -1.46810
H         48.91336        19.90686        -1.62809
O         26.18322        28.89559         1.21396
H         26.99169        28.81773         1.77226
O         55.23569        40.33121         1.80478
H         55.98847        40.92433         2.00990
O         26.67063        33.49945         2.59008
H         26.48082        32.55193         2.75639
O         35.48398        49.43690         2.46928
H         35.58143        48.67546         3.08915
O         43.47213        19.05349        -2.90025
H         42.92680        19.75293        -3.34277
O         44.70097        18.81134         1.41374
H         45.32556        19.30399         1.98872
O         36.69254        38.65637        -0.37837
H         36.82920        37.85743        -0.92917
O         45.25303        32.91066         3.80783
H         45.17350        33.83649         4.15888
O         48.79938        38.96444        -0.82703
H         49.64318        38.54655        -1.10221
O         52.84064        31.63147         3.71579
H         52.95465        30.69585         3.98862
O         31.52279        32.02688        -1.87141
H         31.93402        31.46145        -2.56839
O         52.44351        45.67569        -3.39451
H         51.93538        44.88296        -3.68942
O         53.67149        39.27494        -1.34900
H         54.34546        38.62530        -1.67411
O         36.64585        39.05387         3.25542
H         36.49881        39.83153         3.83381
H         23.24671        24.23110        -3.78355
H         21.24395        25.62540        -3.98751
H         21.05078        27.82360        -2.86573
H         21.23157        29.81678        -2.62872
H         21.21773        32.11180        -1.80258
H         20.93941        33.62021        -0.60342
H         20.87007        35.94884         0.08551
H         20.74532        37.64364         1.13259
H         20.74696        40.05303         1.45037
H         20.74968        41.91701         1.61794
H         20.74411        44.33494         1.72428
H         20.72240        46.19226         1.65879
H         22.82798        49.92331         1.73089
H         20.71072        48.65347         1.64165
H         24.82228        23.11818        -3.30097
H         24.47631        50.79112         1.24963
H         26.87810        21.84110        -3.23897
H         26.56563        52.04330         1.35909
H         30.61612        19.69874        -3.39347
H         28.53391        20.84083        -3.05606
H         30.25524        54.08130         0.40525
H         28.19626        53.01366         1.02778
H         32.18476        18.71485        -2.92365
H         31.87547        54.99520         0.09529
H         34.18087        17.41454        -2.38197
H         33.85401        56.05816        -0.81194
H         38.01125        15.23863        -2.45808
H         35.91206        16.41864        -2.58338
H         37.39738        58.00283        -2.24615
H         35.35821        56.86337        -1.65977
H         39.60454        14.24190        -2.17825
H         39.05320        58.95351        -2.27402
H         43.84496        14.20582        -1.50276
H         41.74461        13.03280        -2.08066
H         43.26764        58.86345        -3.07631
H         41.17333        60.13923        -2.71884
H         45.20413        15.02005        -0.31948
H         44.88834        57.98105        -2.42718
H         47.27486        16.12292         0.29699
H         46.97628        56.74993        -2.17285
H         51.03652        18.27427         0.85711
H         48.98108        17.08245         0.45942
H         50.71907        54.64540        -2.93668
H         48.58033        55.81804        -3.02652
H         52.68981        19.23568         0.90346
H         52.39112        53.64716        -2.98252
H         54.74581        20.32706         1.53815
H         54.51162        52.47240        -2.78161
H         58.36839        22.38311         1.44853
H         56.40629        21.18773         2.16353
H         58.27662        50.59265        -1.72185
H         56.13412        51.74982        -1.86818
H         59.91284        23.25179         0.88077
H         59.93556        49.68200        -1.56473
H         61.96674        24.43450         0.23346
H         62.05166        26.89693         0.18365
H         62.14628        28.77947         0.34281
H         62.17898        31.19433         0.16288
H         62.20746        33.07899         0.06363
H         62.22755        35.48821        -0.18041
H         62.17847        37.33337        -0.69348
H         62.21349        39.72308        -1.00680
H         62.22571        41.70733        -0.84598
H         62.18332        44.10726        -1.37174
H         62.14928        46.05814        -1.01427
H         62.05047        48.50048        -1.22242
