         404
 CSIRO Nanostructure Databank - Neutral Graphene Oxide Data Set
C          1.44525         3.39088         0.46932
C          0.26006         4.06038         0.19163
C          1.33708         6.21431         0.63277
C          0.20321         5.45507         0.25325
C          1.29569         7.67298         0.67202
C          0.09377         8.38346         0.54613
C          1.25116        10.54406         0.54370
C          0.06222         9.77502         0.50124
C          1.22750        11.97535         0.46295
C         -0.00249        12.70407         0.22604
C          1.13247        14.83652         0.79148
C         -0.05142        14.05486         0.28494
C          1.11436        16.30623         0.44241
C         -0.07345        17.03973         0.53482
C          1.10063        19.14943         0.14965
C         -0.09272        18.42191         0.34932
C          1.08486        20.61662        -0.01945
C         -0.14180        21.32812        -0.14668
C          1.00833        23.46973        -0.41111
C         -0.17899        22.69891        -0.31885
C          0.99827        24.91641        -0.48183
C         -0.20912        25.69244        -0.49808
C          0.96408        27.85409        -0.39507
C         -0.21946        27.07969        -0.49769
C          0.98309        29.27869        -0.25554
C         -0.15024        30.09903        -0.11477
C          1.11395        32.23480         0.05202
C         -0.07864        31.49949         0.04168
C          1.20141        33.66465         0.24868
C          0.06109        34.41291         0.64261
C          1.39054        36.43036         0.93963
C          0.15285        35.74501         1.00521
C          1.50566        37.80852         1.35864
C          3.84810         3.45307         1.02122
C          2.61166         4.12038         0.82473
C          3.71822         6.29932         1.47457
C          2.54120         5.53993         0.92511
C          3.72970         7.74571         1.05886
C          2.53038         8.41123         0.81289
C          3.71420        10.59209         0.68963
C          2.50191         9.86045         0.70441
C          3.70465        12.00629         0.47036
C          2.44475        12.71446         0.48765
C          3.62353        14.87011         0.25880
C          2.43022        14.13227         0.47685
C          3.56633        16.26237         0.04857
C          2.32743        16.99106         0.17582
C          3.59644        19.13215         0.13471
C          2.30925        18.41462         0.09395
C          3.57130        20.65420         0.06299
C          2.27785        21.35363        -0.11917
C          3.47387        23.50326        -0.50754
C          2.25720        22.77190        -0.34996
C          3.46403        24.91441        -0.63600
C          2.22475        25.61413        -0.51005
C          3.55076        27.80347        -0.52227
C          2.22922        27.08041        -0.32641
C          3.46513        29.27168        -0.79149
C          2.29480        29.97502        -0.18266
C          3.63445        32.20146        -0.38242
C          2.37592        31.47652        -0.04349
C          3.67723        33.64065        -0.19439
C          2.46185        34.35321         0.14195
C          3.76416        36.51882         0.25974
C          2.52431        35.74104         0.44848
C          3.90095        37.85832         0.86572
C          2.69735        38.47920         1.35608
C          6.30383         3.50497         1.11893
C          5.06229         4.17846         1.16609
C          6.25550         6.32378         1.32704
C          5.04100         5.60224         1.27658
C          6.26393         7.77342         1.18455
C          4.97250         8.52898         1.39195
C          6.15716        10.58791         0.55528
C          4.97313         9.91980         0.81477
C          6.16136        11.99380         0.26257
C          4.91043        12.70102         0.27766
C          6.08415        14.81296        -0.03909
C          4.89407        14.14343         0.13180
C          6.07571        16.28449        -0.08433
C          4.78085        16.95567        -0.52546
C          5.98228        19.13348        -0.54474
C          4.83098        18.44198        -0.26079
C          5.95584        20.58300        -0.62723
C          4.80369        21.30319        -0.39849
C          5.99654        23.50677        -0.87397
C          4.76429        22.78189        -0.45669
C          5.88613        24.90826        -1.34933
C          4.67130        25.65332        -0.98669
C          5.96548        27.75245        -1.23318
C          4.72501        27.03880        -1.00005
C          5.96708        29.21162        -0.91530
C          4.72018        30.03631        -1.03972
C          6.05431        32.20856        -0.80549
C          4.76355        31.50246        -0.75474
C          6.14001        33.59073        -0.30834
C          4.92584        34.30268        -0.18814
C          6.35461        36.37308         0.29017
C          5.05282        35.75911        -0.04012
C          6.36854        37.77494         0.58065
C          5.13784        38.46921         0.88934
C          8.76609         3.54379         1.11328
C          7.51610         4.21693         1.22627
C          8.74969         6.38994         1.65878
C          7.48695         5.63093         1.35578
C          8.72197         7.79308         1.06555
C          7.44194         8.43605         0.91005
C          8.68746        10.61107         0.44406
C          7.41932         9.80957         0.28683
C          8.64341        12.00848         0.15196
C          7.38488        12.66691         0.02797
C          8.63053        14.85677        -0.31926
C          7.33443        14.08518        -0.46942
C          8.63211        16.25971        -0.47168
C          7.35086        17.01010        -0.31974
C          8.51951        19.10851        -0.81855
C          7.19946        18.35304        -1.05688
C          8.48611        20.59266        -0.99239
C          7.16660        21.25309        -1.18238
C          8.47838        23.45000        -1.32572
C          7.19244        22.74585        -1.34285
C          8.45619        24.91828        -1.01224
C          7.20374        25.63313        -1.51679
C          8.48988        27.77598        -1.42067
C          7.17082        27.09255        -1.39363
C          8.54160        29.23575        -1.12017
C          7.25766        29.91076        -0.78667
C          8.47254        31.91250        -0.07412
C          7.32721        31.39462        -0.82214
C          8.42140        33.23010         0.36124
C          7.38686        34.16593         0.05321
C          8.81850        36.30306         0.38710
C          7.54940        35.60847         0.29886
C          8.82923        37.74088         0.48808
C          7.60265        38.43531         0.66297
C         11.16178         3.42155         0.78607
C         10.01337         4.19710         1.17146
C         11.21193         6.40018         1.39705
C         10.04058         5.62741         1.39922
C         11.16385         7.87784         1.31073
C          9.88878         8.53032         0.95856
C         11.14959        10.65873         0.45319
C          9.90341         9.94591         0.62996
C         11.11807        12.04862         0.09281
C          9.87280        12.72943        -0.01574
C         11.08956        14.84486        -0.47475
C          9.85596        14.14653        -0.27810
C         11.07445        16.24400        -0.76027
C          9.83459        16.95767        -0.72302
C         10.95552        19.08467        -1.29367
C          9.81554        18.38937        -0.97905
C         10.90120        20.52599        -1.81764
C          9.70785        21.31546        -1.33728
C         10.93785        23.47190        -1.31410
C          9.68774        22.73260        -1.38896
C         10.95696        24.86974        -1.29582
C          9.75414        25.62608        -1.32875
C         10.97689        27.77007        -1.18658
C          9.76580        27.03126        -1.29524
C         11.01738        29.14377        -0.75962
C          9.75437        29.82393        -0.51878
C         11.44456        32.15900         0.00772
C          9.58514        31.02243         0.16379
C         11.43394        33.60061        -0.05900
C         10.33286        34.31118         0.45416
C         11.32520        36.43780         0.04463
C         10.12510        35.69145         0.24416
C         11.31383        37.85918         0.25659
C         10.05331        38.46913         0.47266
C         13.70361         3.41163         0.54796
C         12.47448         3.76565         1.11968
C         13.71571         6.44667         1.08656
C         12.50856         5.84731         1.55218
C         13.70313         7.84452         0.84985
C         12.46137         8.61582         1.06397
C         13.61105        10.65804         0.23305
C         12.39721         9.99832         0.54717
C         13.58865        12.05140        -0.09302
C         12.34864        12.74572        -0.14426
C         13.55236        14.84141        -0.71727
C         12.33328        14.14770        -0.45061
C         13.52765        16.23825        -1.05586
C         12.28843        16.91519        -1.07805
C         13.52411        19.08472        -1.62384
C         12.22058        18.33427        -1.48653
C         13.52192        20.58626        -1.52529
C         12.21865        21.30839        -1.60224
C         13.50254        23.47092        -0.93631
C         12.17056        22.71733        -1.08369
C         13.51330        24.91193        -1.16947
C         12.24937        25.57139        -1.47269
C         13.54378        27.83137        -1.37154
C         12.23358        27.10794        -1.51024
C         13.56160        29.32815        -1.17811
C         12.21503        29.88708        -0.82020
C         13.94060        32.32601        -1.01596
C         12.13710        31.31778        -0.83558
C         13.83935        33.67213        -0.61425
C         12.58160        34.35276        -0.45276
C         13.80198        36.44978        -0.02686
C         12.56653        35.75924        -0.18568
C         13.79760        37.85844         0.27778
C         12.55392        38.54705         0.33535
C         16.11284         3.55270         0.44326
C         14.88703         4.21339         0.68078
C         16.10779         6.36928         0.57276
C         14.89921         5.65817         0.84065
C         16.11244         7.80003         0.43415
C         14.88608         8.53065         0.49458
C         16.07592        10.63517        -0.00117
C         14.86085         9.94786         0.25265
C         16.06019        12.04711        -0.27232
C         14.81825        12.74430        -0.33508
C         16.02469        14.82855        -0.87880
C         14.79724        14.13958        -0.64268
C         15.98864        16.21261        -1.24099
C         14.77967        16.92582        -1.32294
C         15.99437        19.09382        -1.46434
C         14.80996        18.36863        -1.45202
C         16.04222        20.53230        -1.09831
C         14.73554        21.28062        -0.97599
C         15.98347        23.43692        -1.06831
C         14.77778        22.75006        -1.05491
C         15.97669        24.88567        -1.03319
C         14.74584        25.62143        -1.14568
C         15.95686        27.77136        -0.84636
C         14.75961        27.05909        -1.08645
C         16.00470        29.20720        -0.46270
C         14.84692        29.99313        -0.71545
C         16.06720        32.01591         0.09495
C         14.94744        31.41838        -0.56124
C         16.13695        33.46777         0.16976
C         15.02880        34.29548        -0.17149
C         16.23787        36.34065         0.39742
C         15.02787        35.70944         0.04062
C         16.26304        37.77316         0.62829
C         15.03210        38.48908         0.57673
C         18.57827         3.52678         0.25352
C         17.33759         4.23343         0.38491
C         18.56459         6.36356         0.23318
C         17.33752         5.66063         0.40287
C         18.57134         7.78932         0.15182
C         17.32979         8.50564         0.20303
C         18.54915        10.62467        -0.17610
C         17.31518         9.91969         0.01028
C         18.53753        12.03938        -0.39508
C         17.28703        12.74665        -0.48228
C         18.52195        14.84835        -0.94572
C         17.27230        14.13884        -0.78051
C         18.53080        16.23194        -1.27081
C         17.25073        16.87521        -1.59042
C         18.53293        19.13099        -1.56342
C         17.25753        18.41021        -1.72084
C         18.49842        20.60674        -1.65155
C         17.26127        21.33141        -1.31341
C         18.49820        23.47658        -1.10972
C         17.25095        22.72180        -1.20489
C         18.46449        24.88164        -0.84399
C         17.19837        25.59675        -0.98950
C         18.71797        27.85025        -0.01960
C         17.13336        27.01024        -1.05466
C         18.22767        28.91731         0.77000
C         17.10716        29.78408         0.29980
C         18.04552        31.83836         1.54119
C         17.07436        31.17174         0.66190
C         18.12286        33.31069         1.58950
C         17.24366        34.12018         0.75094
C         18.56646        36.16752         1.20892
C         17.36199        35.53686         0.75919
C         18.77713        37.61041         0.80312
C         17.49069        38.38333         0.89194
C         19.76302         4.20607         0.14984
C         21.00065         6.35067        -0.01115
C         19.78592         5.63667         0.12763
C         21.00647         7.73075        -0.07353
C         19.80083         8.48010        -0.01192
C         20.99226        10.65391        -0.26163
C         19.78845         9.92021        -0.14269
C         20.98089        12.02186        -0.44286
C         19.76511        12.74048        -0.53797
C         20.95863        14.90070        -0.93847
C         19.75875        14.16545        -0.79294
C         20.94912        16.26206        -1.17734
C         19.73470        16.97273        -1.33444
C         20.95284        19.18786        -1.25692
C         19.72568        18.43690        -1.46067
C         20.99835        20.54226        -1.20432
C         19.82194        21.37427        -1.49598
C         20.89981        23.47591        -0.66081
C         19.74376        22.79167        -1.07367
C         20.82361        24.79017        -0.21890
C         19.61924        25.51285        -0.29746
C         20.09035        26.90823         1.71801
C         19.53012        26.79201         0.43624
C         19.76917        28.01838         2.49628
C         18.83616        28.96722         2.05044
C         20.00300        31.82473         3.05862
C         18.81696        31.22469         2.51781
C         20.34067        33.12488         2.79777
C         19.31229        34.02463         2.27591
C         20.68146        36.13339         2.41833
C         19.55932        35.45457         1.92056
C         20.78026        37.54874         2.29911
C         19.86599        38.27506         1.59030
O          3.10414        27.47059         0.81556
O         13.69356        28.76054        -2.51782
O         19.22467        21.13738        -2.80817
O          6.96786        21.85570        -2.49371
O          2.59245        30.57195         1.11805
O          9.40632        33.65262         1.25902
O         11.88735         8.51013         2.42973
O          8.60889        28.79160        -2.50232
O         17.23155        17.53625        -2.89573
O          3.71257        19.95983         1.34701
O         12.72456        22.95996         0.24942
O          4.31271        36.46854        -1.09781
O         18.29232        27.74522        -1.35406
O         10.63763        31.51199         0.97190
O         13.10177        21.23094        -2.77190
O         12.60083         4.64997         2.23236
O         12.82532        18.60103        -2.81945
O          6.88004        32.02810        -2.04021
O         15.35940        20.73374         0.21680
O         18.04372        33.83445         2.97447
O         12.24346        26.32546        -2.73892
O          3.83289        29.65298        -2.15061
O          6.48763        25.10126        -2.66559
O         18.49829        29.94108         2.98643
O          6.59351        29.42646         0.42431
O          8.53718        19.93607         0.36652
O          6.79361        16.95116         1.02476
O          5.71616        23.37207         0.54471
O          7.00992        18.03236        -2.40023
O         12.92952        31.88178        -1.86358
O          7.17784        13.95936        -1.94281
H          7.02411        14.86010        -2.30582
O         10.71181        20.40286        -3.24769
H         11.56062        20.05200        -3.61291
O          4.69771        16.78099        -1.97000
H          5.49918        17.26406        -2.36125
O          4.90181         8.73088         2.85455
H          4.62191         7.86297         3.24262
O         19.20395        37.60753        -0.62705
H         20.11225        37.23872        -0.65679
O          7.36251         9.53116        -1.16946
H          7.34796        10.39850        -1.63027
O          1.02388        14.80718         2.26778
H          1.08108        13.86699         2.54320
O          8.31431        25.02332         0.45357
H          8.99600        24.45634         0.87324
O          3.53067         6.32822         2.96873
H          2.59366         6.57171         3.13339
O          8.74047         6.58748         3.11876
H          9.53555         7.11473         3.35185
H          1.49587         2.29496         0.39948
H         -0.63680         3.49363        -0.09500
H         -0.73791         5.95825        -0.00531
H         -0.85990         7.84154         0.48600
H         -0.91295        10.27123         0.41369
H         -0.90630        12.14767        -0.05930
H         -0.99658        14.57764         0.08018
H         -1.01606        16.52618         0.76988
H         -1.05651        18.94261         0.42348
H         -1.09610        20.78727        -0.09523
H         -1.15774        23.19414        -0.38056
H         -1.17612        25.17175        -0.52896
H         -1.19098        27.59338        -0.53844
H         -1.14963        29.64018        -0.11686
H         -1.03484        32.03340         0.14030
H         -0.91408        33.91277         0.71579
H         -0.74168        36.28266         1.35086
H          0.59857        38.30890         1.72820
H          3.88614         2.35706         0.93921
H          2.75212        39.51235         1.72928
H          6.32455         2.41216         0.99845
H          5.21741        39.50368         1.25740
H          8.75333         2.46028         0.92312
H          7.62405        39.52090         0.84104
H         10.98598         2.53113         0.16496
H         10.00969        39.55767         0.63000
H         13.77797         2.48906        -0.04637
H         12.55272        39.62607         0.55012
H         16.10692         2.45825         0.33209
H         15.03772        39.56726         0.79873
H         18.56205         2.42731         0.24809
H         17.52587        39.45139         1.15579
H         20.71364         3.66012         0.06250
H         21.94606         5.79349        -0.07987
H         21.96872         8.24541        -0.19359
H         21.96084        10.14041        -0.21088
H         21.94174        12.54461        -0.53104
H         21.92994        14.39807        -0.84724
H         21.91287        16.77916        -1.26536
H         21.88009        18.63805        -1.04933
H         21.94227        21.02983        -0.92227
H         21.87030        22.96291        -0.64241
H         21.72295        25.28248         0.17613
H         20.73272        26.11389         2.12135
H         20.17530        28.12216         3.51029
H         20.70004        31.16785         3.59796
H         21.34329        33.50244         3.04227
H         21.43943        35.59499         3.00316
H         21.60566        38.05959         2.81650
H         19.96039        39.36905         1.52412
