         276
 CSIRO Nanostructure Databank - Neutral Graphene Oxide Data Set
C        -11.05719         0.36063        -0.24006
C        -10.29470         1.50611        -0.71229
C         -8.35644         0.59510        -1.55683
C         -7.16800         1.42858        -1.32065
C         -5.92939         0.68512        -1.02653
C         -4.86628         1.41623        -0.22823
C         -3.59121         0.63726        -0.46251
C         -2.34424         1.42168        -0.41202
C         -1.07925         0.70298        -0.09395
C          0.16325         1.49643         0.06503
C          1.33790         0.81613         0.73128
C          2.69381         1.53696         0.82195
C          3.80110         0.81719         0.04315
C          4.92829         1.48174        -0.31861
C          6.20698         0.71718        -0.40950
C          7.48672         1.45884        -0.27114
C          8.75491         0.77115        -0.50222
C          9.92133         1.40560        -0.07560
C         11.11331         0.56200         0.10021
C        -10.22799         2.71982        -0.07974
C         -9.16866         3.67830        -0.34090
C         -7.17030         2.79474        -1.18591
C         -5.97180         3.71646        -0.82420
C         -4.66841         2.92113        -0.54025
C         -3.67692         3.51350         0.44546
C         -2.52725         2.93295        -0.35757
C         -1.21963         3.70069        -0.29586
C          0.10477         2.97736        -0.11236
C          1.26380         3.66611         0.02013
C          2.56233         3.08906         0.57523
C          3.72175         3.69095        -0.22975
C          5.04095         2.97033        -0.47753
C          6.22372         3.54718         0.48792
C          7.48649         2.98267        -0.30237
C          8.78035         3.62310         0.17306
C          9.92033         2.79708         0.25490
C         -8.85153         4.72529         0.46536
C         -7.57304         5.46069         0.35512
C         -6.29769         4.61828         0.44217
C         -5.08445         5.47993         0.85598
C         -3.74579         4.83753         0.75959
C         -2.50126         5.63117         0.96417
C         -1.25085         5.07586         0.33644
C          0.07097         5.69555         0.81411
C          1.22236         5.18359        -0.08989
C          2.51980         5.87480         0.26161
C          3.76306         5.16346        -0.11507
C          5.10062         5.86823        -0.11764
C          6.23898         5.10981         0.67768
C          7.57185         5.80346         0.25130
C          8.77437         5.02200         0.29505
C         -7.59046         6.80911         0.42073
C         -6.42047         7.73755         0.64360
C         -5.13757         6.97511         0.97045
C         -3.86809         7.80798         0.97408
C         -2.53653         7.12808         1.15768
C         -1.27625         7.94556         0.88972
C          0.03048         7.22791         0.76100
C          1.18843         7.90415         0.00937
C          2.49211         7.22362         0.36135
C          3.72351         7.95641         0.70930
C          5.02364         7.23157         0.53957
C          6.32525         8.03097         0.48091
C          7.51045         7.16565         0.06109
C         -6.21476         8.71008        -0.49886
C         -5.05459         9.36229        -0.66558
C         -3.86087         9.08306         0.17208
C         -2.56991         9.72414        -0.20211
C         -1.36771         9.26923         0.21562
C         -0.10448        10.10748        -0.02985
C          1.22397         9.40316         0.22569
C          2.37534        10.07738         0.43383
C          3.75084         9.48233         0.71037
C          4.86094         9.92142        -0.25946
C          6.04594         9.28586        -0.33356
C        -10.82468        -0.92925        -0.57450
C         -9.75929        -1.50555        -1.50282
C         -8.42217        -0.76714        -1.41883
C         -7.17178        -1.56803        -1.30059
C         -5.93463        -0.80882        -0.95329
C         -4.98249        -1.45126         0.04700
C         -3.61734        -0.83636        -0.17784
C         -2.36776        -1.51028         0.24130
C         -1.16360        -0.65882         0.60190
C          0.09769        -1.47391         0.27993
C          1.33660        -0.69155         0.72775
C          2.58343        -1.42883         0.41766
C          3.91168        -0.68907         0.30353
C          4.94082        -1.40949        -0.56533
C          6.10990        -0.60370        -1.12629
C          7.44298        -1.35986        -1.20903
C          8.80940        -0.66936        -0.96422
C          9.64762        -1.46242         0.06955
C         11.00464        -0.78132         0.17770
C         -9.63046        -2.99642        -1.19472
C         -8.49886        -3.70344        -0.99712
C         -7.16593        -3.04492        -1.05369
C         -6.00561        -3.71427        -0.36122
C         -4.90269        -2.96210         0.04801
C         -3.79228        -3.52815         0.87032
C         -2.47407        -2.79962         1.00871
C         -1.15544        -3.43192         1.55902
C          0.10466        -2.87615         0.88284
C          1.28639        -3.53979         0.71498
C          2.46861        -2.77960         0.19430
C          3.45180        -3.35688        -0.77510
C          4.83166        -2.74251        -0.80617
C          6.05802        -3.55732        -1.07461
C          7.39166        -2.85029        -1.13860
C          8.62424        -3.60799        -0.74804
C          9.69384        -2.94474        -0.26000
C         -8.53306        -5.21760        -0.92528
C         -7.26447        -5.86351        -0.38137
C         -6.08797        -5.10155        -0.06701
C         -5.20005        -5.67532         1.02956
C         -3.84132        -4.98559         1.25001
C         -2.55361        -5.70510         1.55934
C         -1.20106        -4.97856         1.56302
C          0.06184        -5.73622         1.27353
C          1.38890        -4.99412         1.08311
C          2.63660        -5.84537         0.90148
C          3.98907        -5.27281         0.64572
C          4.83472        -5.72933        -0.31271
C          6.07896        -5.00774        -0.70235
C          7.35463        -5.71024        -0.25369
C          8.60624        -5.12208        -0.95580
C         -7.27639        -7.22508        -0.18778
C         -5.98781        -7.95833         0.05734
C         -5.07424        -7.20539         1.01789
C         -3.84414        -7.94070         1.44435
C         -2.49227        -7.24460         1.65040
C         -1.43187        -7.80514         0.69750
C         -0.10411        -7.10429         0.65259
C          1.12750        -7.91048         0.36282
C          2.48146        -7.27647         0.44024
C          3.35892        -7.77557        -0.73787
C          4.72942        -7.07478        -0.99139
C          5.98553        -7.85193        -0.57713
C          7.17531        -7.21637        -0.37307
C         -6.12368        -9.40938         0.43697
C         -5.09831       -10.09000         0.96273
C         -3.77472        -9.47579         1.35523
C         -2.62521        -9.97026         0.50891
C         -1.50397        -9.24820         0.30791
C         -0.35722        -9.84603        -0.43552
C          0.97939        -9.17403        -0.45619
C          2.24189        -9.95300        -0.59665
C          3.43062        -9.29274        -0.66336
C          4.71267        -9.96675        -0.64794
C          5.89715        -9.30199        -0.57465
O          6.15148         5.39822         2.01465
O         -3.54362         3.14548        -1.52870
O         -2.79446        -1.59213        -1.13374
O         -0.31457         7.88031         2.00594
O         -0.14299         0.80680        -1.21535
O          3.40012         4.49039        -1.41331
O         -4.92613        -7.64732         2.39563
O         -5.36105        -0.13132        -2.10220
O         -4.05827         9.08508         1.63961
O          2.04480        -8.18404         1.48293
O          6.87657         0.73016         0.88031
O         -6.90554        -2.51927        -2.40555
O         -0.39987        -5.56242         2.63880
O          7.50983        -2.15026        -2.44247
O         -2.88744         0.92154        -1.68552
O         -1.07031        -6.97725        -0.44888
O          2.21834        -5.41775         2.23021
O         -5.30991         6.13692         2.16133
O         -2.36625         6.22865         2.29092
O          3.20187         1.37357         2.12496
O          6.02280        -4.59446        -2.12329
O          7.39978         3.39744        -1.61670
O          2.51798        -7.43361        -1.85934
O         -3.39117        -5.18035         2.63543
O         -8.35149         3.47402        -1.48038
O          1.00076         7.74076        -1.38446
O          4.39342         7.29302         1.83830
O          1.11852         0.05911         1.95127
O         -1.31581         4.90633        -1.10410
O          3.08008        -4.12948        -1.64858
O         -9.52781         1.30484        -1.86199
O         -3.48442        -2.68663         2.05858
O         -5.14956         1.34420         1.18071
H         -5.73721         2.10225         1.43591
O         -0.18447        11.30427         0.74566
H         -0.23940        11.05485         1.69142
O          6.12336         2.98845         1.73612
H          6.06320         3.76955         2.37502
O         -5.24311        -7.90116        -1.20782
H         -5.75338        -8.38928        -1.88795
O         -5.73607         4.61973        -1.90788
H         -5.07195         4.21700        -2.50946
O          8.60910        -5.43176        -2.34354
H          7.76435        -5.09740        -2.72862
O         -6.50717         3.68378         1.53272
H         -6.43494         4.19777         2.36812
O          5.44287         3.23101        -1.80572
H          5.36739         4.21024        -1.98454
O         -1.06433        -2.98526         2.92936
H         -1.86994        -3.30775         3.39372
O          4.48081        -0.82099         1.63664
H          4.10763        -0.04750         2.16273
O          5.53826         6.00233        -1.49045
H          4.81526         6.41469        -2.01049
O         -9.65803        -5.67901        -0.17474
H         -9.55220        -5.38510         0.75327
O         -6.75930         8.52887         1.81090
H         -6.38971         8.07195         2.59645
O          2.66450         3.71555         1.86466
H          2.87445         2.97909         2.50915
O         -1.31878        -0.36691         2.00119
H         -1.10869        -1.17493         2.53736
O         -3.49793        -9.95551         2.69758
H         -2.84227        -9.33626         3.10051
O          0.09108        -9.11273        -1.60518
H          3.12493        -7.27241        -2.62553
O          7.54259        -5.40521         1.15346
H          6.74422        -5.69613         1.64303
O          8.96737        -1.33119         1.33905
H          9.43495        -1.87323         2.00735
O          4.14426         9.95421         2.01224
H          4.95065         9.44408         2.27018
O          4.35402        -4.24688         1.46694
H          3.64467        -4.15966         2.15201
O          6.65806         8.42576         1.83713
H          6.50246         7.62174         2.39171
O          0.92888         5.57306        -1.44402
H          1.74337         5.43160        -1.97938
O          0.14712        -1.75046        -1.13088
H         -0.00847        -0.91616        -1.63554
O          9.53790        -0.65354        -2.20427
H          9.14905        -1.35851        -2.77659
O          4.85278        -6.95146        -2.43082
H          5.04382        -6.00922        -2.65017
O         -5.53371        -1.13289         1.34581
H         -4.91304        -1.47857         2.03184
O          0.31319         5.27821         2.15361
H         -0.11395         5.93620         2.74997
O        -10.26529        -1.40672        -2.85660
H         -9.53632        -1.65516        -3.46307
O         -2.04518        -7.59017         2.98136
H         -2.49649        -6.98131         3.60705
O          5.71172        -0.27160        -2.47691
H          5.95844        -1.03630        -3.04738
O         -5.98167        -5.34445         2.20865
H         -5.59061        -5.86610         2.94923
H         11.89542        -1.39779         0.37535
H         12.08754         1.05426         0.24044
H         10.86970         3.25295         0.57930
H          9.71969         5.53539         0.53738
H          8.40635         7.69339        -0.30913
H          6.84325         9.68244        -0.98259
H          4.71200        10.84739        -0.83713
H          2.31242        11.17291         0.54778
H         -0.11736        10.42409        -1.10812
H         -2.62939        10.67846        -0.74833
H         -4.94032        10.09831        -1.47594
H         -7.07373         8.93687        -1.14713
H         -8.57203         7.30864         0.43432
H         -9.53148         5.00420         1.28506
H        -10.85179         2.89320         0.80886
H        -11.85004         0.57120         0.49627
H        -11.48360        -1.68209        -0.10996
H        -10.58165        -3.55445        -1.20973
H         -8.67862        -5.59606        -1.97493
H         -8.19945        -7.79244        -0.38393
H         -7.07150        -9.92093         0.20651
H         -5.21361       -11.15864         1.19931
H         -2.65301       -11.02173         0.18262
H         -0.41173       -10.94695        -0.58602
H          2.20098       -11.05332        -0.59370
H          4.70631       -11.06739        -0.63814
H          6.83624        -9.87097        -0.49648
H          8.06747        -7.82729        -0.15638
H          9.52632        -5.56698        -0.50200
H         10.59880        -3.50914         0.02169
