         600
 CSIRO Nanostructure Databank - Neutral Graphene Oxide Data Set
C         23.52106        27.47414         2.90224
C         23.49759        28.84148         2.79901
C         23.42365        31.74577         2.49140
C         23.38929        33.11706         2.34158
C         23.27015        35.98403         1.83625
C         23.22563        37.35761         1.61588
C         23.33557        40.27600         1.93002
C         23.38249        41.62385         2.00781
C         23.20220        44.55123         1.56909
C         23.13651        45.91025         1.41123
C         25.77755        24.60804         2.16333
C         24.67276        25.32082         2.58041
C         25.79640        27.41645         1.95402
C         24.66276        26.73270         2.48087
C         25.77385        28.84808         1.87992
C         24.61835        29.56180         2.28876
C         25.74526        31.70050         1.73743
C         24.58806        31.00133         2.17708
C         25.71985        33.12546         1.61481
C         24.52094        33.83635         1.88797
C         25.64741        35.96930         1.27582
C         24.47254        35.26921         1.68215
C         25.60315        37.38556         1.06767
C         24.37281        38.07035         1.26305
C         25.57619        40.24513         0.85257
C         24.24928        39.54313         0.97755
C         25.57289        41.66366         0.86771
C         24.42018        42.37879         1.33349
C         25.47931        44.46338         0.61451
C         24.36745        43.78659         1.19321
C         25.34341        45.88309         0.28639
C         24.20614        46.64341         0.80542
C         25.39563        48.74769         0.40284
C         24.22082        48.03371         0.71645
C         28.29082        23.12287         1.70737
C         28.04431        24.45300         1.13004
C         26.90487        25.26489         1.61709
C         28.09517        27.36865         0.96223
C         26.93083        26.67089         1.50462
C         28.09464        28.82881         0.98681
C         26.93680        29.55201         1.42170
C         28.10738        31.69359         1.01779
C         26.93388        30.97498         1.39577
C         28.09769        33.12143         0.93906
C         26.89603        33.83789         1.20627
C         28.04548        35.96121         0.66306
C         26.86721        35.25623         1.05729
C         28.00421        37.38004         0.45136
C         26.78116        38.08618         0.64933
C         27.93275        40.24530         0.19207
C         26.75152        39.53269         0.53869
C         27.94049        41.65380         0.17274
C         26.74714        42.37589         0.48279
C         27.90962        44.52235         0.04846
C         26.69711        43.79434         0.35003
C         27.91351        45.93575        -0.00103
C         26.64431        46.67261        -0.04703
C         27.88377        48.82411         0.13885
C         26.62156        48.11969         0.17221
C         27.92176        50.23690         0.21268
C         30.61711        23.11979         0.90967
C         29.47506        22.48946         1.53341
C         30.55224        24.48681         0.53176
C         29.24031        25.18030         0.53662
C         30.35949        27.35005        -0.10272
C         29.19984        26.65973         0.49900
C         30.41068        28.85388         0.06398
C         29.24930        29.55134         0.63788
C         30.48517        31.68936         0.35146
C         29.28975        30.97544         0.68607
C         30.48627        33.10589         0.31404
C         29.28193        33.82621         0.57095
C         30.45186        35.95724         0.09139
C         29.26175        35.25141         0.44777
C         30.41131        37.37734        -0.09285
C         29.19181        38.06136         0.04977
C         30.40778        40.24788        -0.29681
C         29.10231        39.49814        -0.39237
C         30.38975        41.67111        -0.25645
C         29.16125        42.38188        -0.08362
C         30.36946        44.53540        -0.18309
C         29.14569        43.80658        -0.07290
C         30.36460        45.96040        -0.13128
C         29.12872        46.66706        -0.03418
C         30.34732        48.82365        -0.04015
C         29.11213        48.10777         0.01019
C         30.34868        50.24886         0.00382
C         29.11352        50.92800         0.13575
C         33.07222        20.29325         0.71872
C         31.90964        20.98659         0.94002
C         33.01287        23.08698         0.32019
C         31.83718        22.39848         0.73778
C         32.96065        24.49251         0.07789
C         31.71487        25.16822         0.13213
C         32.90915        27.32397        -0.07865
C         31.63569        26.56551        -0.45833
C         32.94017        28.79816         0.14164
C         31.69297        29.57685         0.05776
C         32.95169        31.68592        -0.08579
C         31.71100        30.95966         0.13304
C         32.90763        33.10849        -0.21578
C         31.69101        33.82368        -0.00787
C         32.86931        35.95028        -0.47345
C         31.67038        35.24164        -0.11627
C         32.84016        37.39956        -0.60282
C         31.63385        38.09497        -0.42014
C         32.84170        40.25649        -0.67360
C         31.61679        39.54087        -0.45789
C         32.84133        41.70557        -0.61829
C         31.61669        42.40171        -0.37517
C         32.83066        44.55012        -0.40228
C         31.60650        43.82646        -0.31917
C         32.82889        45.97841        -0.33149
C         31.59707        46.68654        -0.19904
C         32.82200        48.82758        -0.18721
C         31.58916        48.11107        -0.14522
C         32.82241        50.26133        -0.13790
C         31.59400        50.97374        -0.07717
C         32.81056        53.08478        -0.22956
C         31.62465        52.39392        -0.11104
C         35.52714        18.81368         0.13827
C         35.47700        20.23308         0.04519
C         34.26380        20.95371         0.29697
C         35.41307        23.05599        -0.30317
C         34.23322        22.36589         0.11831
C         35.35833        24.47382        -0.50686
C         34.17624        25.17790        -0.29959
C         35.33362        27.33408        -0.68041
C         34.17827        26.62493        -0.41193
C         35.25319        28.83106        -0.87719
C         34.28485        29.52746         0.10062
C         35.33382        31.68522        -0.66315
C         34.16097        30.99558        -0.27085
C         35.30900        33.09381        -0.79511
C         34.09593        33.81765        -0.55693
C         35.25495        35.93604        -1.26944
C         34.05514        35.23587        -0.69001
C         35.30072        37.41568        -1.00368
C         34.06498        38.12245        -0.87579
C         35.25507        40.27558        -1.34272
C         34.02981        39.54572        -0.94037
C         35.26249        41.80411        -1.37372
C         34.03671        42.43690        -0.76477
C         35.30021        44.56207        -0.64508
C         34.05594        43.84581        -0.60461
C         35.30194        45.97940        -0.52883
C         34.05906        46.69318        -0.40291
C         35.28993        48.83427        -0.32344
C         34.05169        48.11422        -0.31443
C         35.27940        50.24224        -0.17820
C         34.06316        50.97787        -0.15403
C         35.27819        53.14150        -0.45554
C         34.06094        52.41203        -0.25079
C         35.32549        54.45641        -0.96986
C         37.91355        18.80638        -0.36553
C         36.69682        18.12641        -0.07515
C         37.89979        20.22055        -0.47132
C         36.66939        20.93867        -0.30002
C         37.86394        23.07803        -0.73909
C         36.63524        22.35237        -0.47154
C         37.85050        24.47185        -0.89608
C         36.53969        25.17024        -1.13520
C         37.78964        27.34872        -0.96194
C         36.58270        26.65359        -0.88640
C         37.79768        28.80209        -0.91785
C         36.59355        29.52358        -0.83163
C         37.80126        31.62705        -0.99406
C         36.58848        30.94025        -0.83531
C         37.78618        33.07460        -1.38565
C         36.53623        33.82801        -1.01035
C         37.80147        35.93852        -1.06768
C         36.55025        35.20619        -1.02776
C         37.78485        37.37591        -1.06725
C         36.54405        38.07335        -1.04533
C         37.81511        40.28442        -1.02194
C         36.56416        39.53548        -1.26344
C         37.78435        41.70708        -0.86632
C         36.55701        42.43458        -0.89202
C         37.78100        44.54697        -0.57056
C         36.54698        43.83425        -0.70232
C         37.78032        45.97539        -0.55308
C         36.53291        46.70089        -0.53673
C         37.75898        48.85483        -0.48072
C         36.53339        48.12621        -0.43677
C         37.79835        50.23898        -0.28941
C         36.54943        50.93886         0.00320
C         37.80970        53.14563        -0.53084
C         36.55181        52.50328        -0.14956
C         37.78943        54.49592        -0.94509
C         36.52646        55.12337        -1.15884
C         40.37803        15.97074        -0.57620
C         39.19232        16.66135        -0.45212
C         40.35674        18.79696        -0.75920
C         39.15117        18.08086        -0.52972
C         40.34884        20.23049        -0.86353
C         39.11730        20.93958        -0.72487
C         40.32089        23.07894        -1.00525
C         39.10425        22.36086        -0.81164
C         40.30897        24.50330        -1.05160
C         39.06542        25.20949        -1.00809
C         40.27874        27.35648        -1.07948
C         39.05091        26.63817        -1.04584
C         40.27967        28.78933        -1.03815
C         39.03978        29.50433        -0.96805
C         40.27387        31.65960        -0.99045
C         39.03296        30.92822        -1.01029
C         40.24598        33.09312        -0.91423
C         39.05616        33.80854        -1.04788
C         40.29096        35.97572        -1.35310
C         39.01907        35.23378        -1.04971
C         40.25619        37.44169        -1.01156
C         39.02902        38.11751        -1.01580
C         40.25766        40.27040        -0.74996
C         39.01946        39.56599        -0.91658
C         40.25249        41.69117        -0.62024
C         39.01713        42.40463        -0.64852
C         40.24375        44.53787        -0.38788
C         39.01669        43.83221        -0.53405
C         40.23303        45.96763        -0.41141
C         39.00811        46.66951        -0.54376
C         40.26365        48.84866        -0.33788
C         39.03124        48.14479        -0.83944
C         40.27120        50.28388        -0.29569
C         39.02514        50.98584        -0.33869
C         40.26948        53.10939        -0.57976
C         39.02974        52.41071        -0.44371
C         40.26779        54.51148        -0.86154
C         39.04477        55.20166        -1.10001
C         40.28386        57.26723        -1.47700
C         39.08769        56.58494        -1.42281
C         42.83366        15.95921        -0.87772
C         41.59751        16.66463        -0.77659
C         42.81613        18.79023        -1.06894
C         41.58848        18.08353        -0.87246
C         42.80376        20.21344        -1.19660
C         41.56011        20.93697        -1.10198
C         42.75644        23.09645        -1.37901
C         41.55559        22.36953        -1.17044
C         42.77026        24.50654        -1.30907
C         41.53555        25.22455        -1.16244
C         42.76171        27.36868        -1.20386
C         41.52587        26.64771        -1.15410
C         42.74781        28.79044        -1.13406
C         41.50924        29.50964        -1.05664
C         42.75411        31.66136        -0.94791
C         41.50123        30.94435        -0.98407
C         42.76428        33.08946        -0.82157
C         41.49226        33.82271        -0.48743
C         42.72388        35.97448        -0.87556
C         41.53230        35.27336        -0.89352
C         42.73048        37.42820        -0.88877
C         41.49681        38.13808        -0.88528
C         42.73013        40.26410        -0.61166
C         41.49570        39.56251        -0.73683
C         42.72868        41.69012        -0.46294
C         41.49078        42.39295        -0.45915
C         42.70891        44.49673        -0.09703
C         41.49104        43.81693        -0.30986
C         42.67494        45.95722         0.09749
C         41.45510        46.69977        -0.28034
C         42.73367        48.85359        -0.20695
C         41.44609        48.11108        -0.20672
C         42.72959        50.29991         0.23210
C         41.48098        51.01680        -0.19967
C         42.76302        53.12102        -0.44043
C         41.50341        52.41329        -0.39197
C         42.75393        54.52870        -0.69916
C         41.51351        55.21190        -0.92582
C         42.74905        57.30894        -1.25954
C         41.51415        56.60325        -1.22086
C         44.01165        16.63458        -1.05666
C         45.26267        18.77786        -1.31905
C         44.04030        18.06297        -1.15911
C         45.23126        20.18801        -1.41983
C         44.02302        20.90506        -1.39351
C         45.26683        23.13712        -1.51897
C         43.99975        22.36131        -1.80667
C         45.25962        24.50471        -1.46601
C         44.00783        25.24228        -1.38534
C         45.26149        27.38218        -1.26694
C         44.00513        26.64765        -1.30267
C         45.23193        28.80170        -1.14915
C         43.98752        29.51656        -1.11233
C         45.25238        31.67756        -0.82689
C         43.96471        30.92940        -1.02373
C         45.18320        33.11464        -1.28900
C         43.94936        33.83721        -0.92698
C         45.21416        35.98588        -0.92248
C         43.97825        35.25545        -0.88302
C         45.20634        37.41321        -0.76627
C         43.96140        38.12680        -0.76065
C         45.20422        40.25693        -0.51511
C         43.96498        39.55173        -0.62989
C         45.20738        41.68966        -0.39328
C         43.96536        42.39533        -0.34177
C         45.20680        44.50737        -0.01983
C         43.96279        43.81400        -0.13187
C         45.27380        45.92854         0.49571
C         43.96041        46.68553         0.32266
C         45.27137        48.87412         0.13381
C         44.01631        48.12261        -0.07820
C         45.24033        50.30324         0.02761
C         44.02545        51.01453        -0.07020
C         45.24262        53.15148        -0.38876
C         44.00065        52.42268        -0.30014
C         45.22721        54.56695        -0.55473
C         43.97562        55.25918        -0.74883
C         43.93674        56.65608        -1.02339
C         47.71883        18.72775        -1.26793
C         46.53975        18.08396        -1.41141
C         47.71366        20.18561        -1.00810
C         46.52297        20.91304        -1.55834
C         47.80060        23.12980        -1.22744
C         46.55113        22.40440        -1.58779
C         47.80389        24.53201        -1.27415
C         46.55039        25.25461        -1.73774
C         47.73424        27.39588        -1.19795
C         46.49976        26.70193        -1.33126
C         47.72699        28.81428        -1.16302
C         46.47673        29.53221        -1.18194
C         47.74057        31.64938        -1.40961
C         46.47296        30.92435        -1.25739
C         47.76723        33.16245        -1.44314
C         46.45922        33.89571        -1.42986
C         47.68587        35.98986        -0.82949
C         46.45487        35.31789        -1.05812
C         47.67637        37.39990        -0.62749
C         46.43471        38.11436        -0.64368
C         47.67028        40.25131        -0.39936
C         46.43118        39.54364        -0.50946
C         47.68075        41.67862        -0.37789
C         46.43719        42.40002        -0.34848
C         47.66218        44.57893        -0.25671
C         46.42880        43.83116        -0.19404
C         47.69898        45.98761        -0.14697
C         46.48894        46.71841         0.05691
C         47.75329        48.88587         0.31387
C         46.46851        48.13066         0.11536
C         47.68984        50.31775        -0.15015
C         46.50130        51.01827        -0.12013
C         47.70864        53.18867        -0.30925
C         46.48786        52.46157        -0.29522
C         47.66084        54.60273        -0.40031
C         46.46117        55.26761        -0.53561
C         50.23143        20.27259        -0.47305
C         48.94484        20.96445        -0.65397
C         50.19269        23.13375        -0.68646
C         48.97953        22.43014        -0.88878
C         50.24784        24.55774        -0.81330
C         49.01382        25.24885        -1.07341
C         50.20774        27.38525        -0.99530
C         48.98438        26.68290        -1.09872
C         50.18830        28.81537        -0.98093
C         48.95692        29.52796        -1.04950
C         50.16505        31.68656        -0.88889
C         48.97916        30.94763        -1.07037
C         50.16662        33.12744        -0.78641
C         48.97434        33.85753        -0.96605
C         50.14137        35.95248        -0.45096
C         48.93174        35.26260        -0.76070
C         50.10998        37.36503        -0.29859
C         48.91260        38.09099        -0.41955
C         50.12030        40.26323        -0.34964
C         48.90702        39.54632        -0.35497
C         50.15459        41.68184        -0.41679
C         48.91903        42.37387        -0.41969
C         50.22744        44.57874        -0.53534
C         48.89040        43.83702        -0.57892
C         50.20313        46.01570        -0.23278
C         48.97137        46.70861        -0.18289
C         50.22206        48.80320        -0.08077
C         48.99602        48.12230        -0.07764
C         50.26171        50.25972        -0.32494
C         48.94512        51.02746        -0.43306
C         50.21537        53.11370        -0.20554
C         48.97856        52.48896        -0.28822
C         51.35636        20.97960        -0.23047
C         52.50309        23.14505         0.13816
C         51.36579        22.42782        -0.25878
C         52.67598        24.53449        -0.21181
C         51.50814        25.24929        -0.70860
C         52.61944        27.46424        -1.17239
C         51.46845        26.67817        -0.95203
C         52.63073        28.87380        -1.05340
C         51.39338        29.55968        -0.90009
C         52.60626        31.66914        -0.49155
C         51.39331        30.97558        -0.76678
C         52.60675        33.08187        -0.31469
C         51.38675        33.81586        -0.46470
C         52.62228        35.93001        -0.11819
C         51.37794        35.22929        -0.32884
C         52.64479        37.33997        -0.04507
C         51.35012        38.09161         0.14934
C         52.68497        40.23234        -0.31977
C         51.38199        39.49736        -0.40187
C         52.66283        41.69563        -0.17100
C         51.43137        42.39901        -0.32762
C         52.64841        44.51751         0.04783
C         51.45167        43.81175        -0.26601
C         52.65874        45.94847         0.14056
C         51.43143        46.68674        -0.01115
C         52.68118        48.82529         0.23469
C         51.44670        48.10581         0.03808
C         52.69283        50.25247         0.26589
C         51.48443        51.00850        -0.02070
C         51.42924        52.39568        -0.06113
C         54.58801        23.06030         1.44409
C         53.45409        22.47883         1.01260
C         55.08261        24.30983         0.78924
C         53.96589        25.09974         0.09496
C         55.45480        27.08671         0.20868
C         54.42201        26.32650        -0.40741
C         55.63866        28.46994        -0.06989
C         53.83343        29.62850        -0.91332
C         54.97397        31.56186         0.28367
C         53.83422        30.93521        -0.44417
C         55.03915        33.04464         0.22448
C         53.84323        33.76669        -0.05076
C         55.06953        35.87735         0.26272
C         53.84644        35.19217         0.01002
C         55.09434        37.30767         0.24948
C         53.87227        38.04387         0.05930
C         55.09084        40.19298         0.20636
C         53.89973        39.47943         0.04535
C         55.10046        41.62027         0.31447
C         53.86609        42.36363         0.15093
C         55.02502        44.49853         0.67171
C         53.85558        43.79386         0.28051
C         55.05342        45.90917         0.72298
C         53.86083        46.64578         0.42571
C         55.10376        48.78243         0.69074
C         53.88064        48.08735         0.45463
C         55.08353        50.19490         0.73371
C         53.91381        50.90802         0.53388
C         56.79630        24.61969         2.68066
C         55.99478        25.16572         1.66225
C         57.10608        27.34101         2.02902
C         56.16682        26.52690         1.32808
C         57.22069        28.73538         1.73978
C         56.35672        29.32434         0.75972
C         57.34197        31.58359         1.27100
C         56.15094        30.80303         0.84879
C         57.38994        32.98458         1.05968
C         56.23051        33.71533         0.57667
C         57.48092        35.84936         0.81430
C         56.26468        35.14680         0.53832
C         57.51891        37.28098         0.71915
C         56.32565        37.98564         0.41289
C         57.63378        40.19527         0.62650
C         56.35633        39.44349         0.23719
C         57.50740        41.62138         0.97725
C         56.28612        42.28897         0.74920
C         57.48131        44.46559         1.44558
C         56.18422        43.71158         1.11930
C         57.49675        45.91517         1.22211
C         56.29268        46.62037         0.97711
C         57.58539        48.70314         0.98321
C         56.33223        48.04232         0.88872
C         57.73644        25.39270         3.35842
C         58.88531        27.58271         3.70025
C         57.91788        26.76064         3.04543
C         59.04444        28.90870         3.35290
C         58.21907        29.52439         2.37097
C         59.53741        31.65217         2.32266
C         58.37560        30.91565         1.97564
C         59.64559        32.99136         2.01386
C         58.57214        33.70225         1.41435
C         59.85096        35.84530         1.42768
C         58.64373        35.12572         1.20751
C         59.89249        37.21744         1.35417
C         58.73402        37.98699         1.04495
C         59.84636        40.13033         1.69495
C         58.76384        39.40888         1.13664
C         59.84035        41.51126         1.75955
C         58.69283        42.29260         1.42338
C         59.95161        44.45671         1.46905
C         58.74354        43.71964         1.45263
C         59.95429        45.83798         1.40811
C         58.74420        46.58665         1.25810
C         58.76327        48.00038         1.13446
O         43.47324        48.47745        -1.41832
O         49.56988        44.27001        -1.81348
O         57.31150        39.90184        -0.77942
O         32.87603        27.84472         1.30214
O         54.96855        31.10302         1.71207
O         45.65174        33.50843        -2.60135
O         49.66170        50.56260        -1.63849
O         36.59751        51.83183         1.15012
O         47.93954        32.41225        -2.68144
O         56.55773        44.01283         2.50481
O         46.70789        21.59678        -2.85027
O         28.23725        24.53472        -0.32461
O         52.13597        39.71973        -1.61841
O         43.09702        46.43313         1.48090
O         53.81072        26.84538        -1.56009
O         25.72676        46.20985        -1.08394
O         47.95251        20.55934         0.39676
O         30.01538        28.22188        -1.23975
O         55.04440        29.00283        -1.22066
O         35.89082        39.78604        -2.57800
O         34.68549        29.04093        -2.20174
H         35.25400        28.57990        -2.85424
O         35.17578        42.20107        -2.78267
H         35.62897        41.48768        -3.29369
O         51.21698        38.27710         1.60546
H         51.13469        37.38864         2.01243
O         42.64888        50.21520         1.70087
H         42.56875        51.12838         2.04891
O         39.12115        48.24040        -2.32318
H         39.98308        47.85094        -2.58595
O         55.96219        23.85475        -0.30612
H         55.41621        23.30669        -0.90910
O         37.73622        33.03279        -2.86500
H         37.58235        33.95049        -3.17835
O         36.31166        25.04881        -2.60156
H         36.23438        24.09150        -2.80355
O         35.07855        35.83964        -2.74267
H         34.29391        36.38058        -2.97807
O         31.66123        26.37875        -1.89050
H         31.09301        27.08309        -2.28333
O         46.64738        25.28652        -3.20780
H         46.60336        24.35891        -3.52636
O         47.87879        49.00045         1.79206
H         47.63719        48.12783         2.17299
O         41.42146        33.84124         0.99983
H         42.28389        34.17784         1.32571
O         28.81306        39.42401        -1.84743
H         28.73305        40.34591        -2.17404
O         23.61199        39.63417        -0.34992
H         23.55841        40.58659        -0.57930
O         40.37486        35.94606        -2.83879
H         39.65689        36.52012        -3.18294
O         45.49284        45.78179         1.94156
H         44.59122        45.76922         2.34862
O         45.41819        31.82369         0.64800
H         45.31312        30.93170         1.04401
O         43.95400        22.30719        -3.28361
H         44.82159        21.92962        -3.56738
O         34.86556        29.49203         1.42012
H         34.40171        28.77540         1.91544
H         22.65445        26.93184         3.30674
H         22.60074        29.38096         3.12925
H         22.51685        31.23687         2.84220
H         22.45798        33.64470         2.58425
H         22.34209        35.46734         2.11146
H         22.26276        37.87779         1.70798
H         22.55618        39.72464         2.47487
H         22.65310        42.15952         2.63229
H         22.34488        44.02709         2.01247
H         22.24460        46.46039         1.74540
H         25.76085        23.51193         2.22425
H         23.79093        24.80034         2.97978
H         25.34908        49.84289         0.47383
H         23.32821        48.59851         1.02288
H         27.50643        22.63973         2.30607
H         26.98923        50.80687         0.31388
H         29.59893        21.48878         1.96881
H         29.08519        52.02380         0.18673
H         33.07126        19.20654         0.87335
H         31.01600        20.42889         1.24872
H         32.78556        54.18211        -0.27286
H         30.68980        52.96735        -0.07000
H         34.61955        18.24410         0.37556
H         34.38999        54.97912        -1.21335
H         36.68087        17.03197         0.00221
H         36.49088        56.15856        -1.52299
H         40.38886        14.87322        -0.51262
H         38.26864        16.09088        -0.29157
H         40.29670        58.34064        -1.71487
H         38.15570        57.13193        -1.61788
H         42.82810        14.86237        -0.80099
H         42.74368        58.38512        -1.48442
H         44.94704        16.06347        -1.11825
H         44.86974        57.23252        -1.06924
H         48.66697        18.17311        -1.30241
H         46.54429        16.99844        -1.57883
H         48.59275        55.18342        -0.39821
H         46.47765        56.36109        -0.62803
H         50.24784        19.17448        -0.45033
H         50.27469        54.21037        -0.16870
H         52.30178        20.44580        -0.06139
H         52.34419        52.98575         0.08738
H         55.22546        22.53823         2.17079
H         53.15637        21.51105         1.44076
H         56.00495        50.75502         0.93874
H         53.95108        52.00441         0.57987
H         56.70442        23.55768         2.94697
H         57.63595        49.79670         0.90173
H         58.35411        24.93375         4.14383
H         59.51778        27.14053         4.48358
H         59.80819        29.50574         3.87065
H         60.37136        31.15138         2.83273
H         60.56620        33.51983         2.29366
H         60.77664        35.30580         1.66662
H         60.84837        37.72568         1.53765
H         60.73105        39.59404         2.06406
H         60.72827        42.02000         2.15858
H         60.91202        43.92453         1.51370
H         60.90890        46.38273         1.42822
H         59.72503        48.53144         1.16961
