         261
 CSIRO Nanostructure Databank - Neutral Graphene Oxide Data Set
C        -11.18933         0.82268         0.48142
C        -10.05058         1.55838        -0.13433
C         -8.79574         0.79238        -0.34010
C         -7.47656         1.49901        -0.29425
C         -6.27752         0.67984        -0.65705
C         -5.01768         1.39288        -1.03695
C         -3.76019         0.59383        -0.92290
C         -2.54972         1.26410        -0.31959
C         -1.28910         0.46845        -0.18616
C          0.00754         1.19969         0.05889
C          1.18328         0.62072        -0.69014
C          2.39574         1.45902        -0.92456
C          3.70985         0.77478        -1.22468
C          4.96614         1.58789        -1.26582
C          6.31157         0.88254        -1.11827
C          7.39542         1.57047        -0.32069
C          8.69936         0.86916        -0.11738
C         10.01112         1.62494         0.09638
C         10.78381         0.87049         1.16899
C         -9.94468         3.04336        -0.14233
C         -8.77956         3.70536        -0.35296
C         -7.46146         3.00923        -0.32941
C         -6.19041         3.72374        -0.68719
C         -4.94458         2.91422        -0.97642
C         -3.63583         3.58993        -0.64707
C         -2.54492         2.75879        -0.02595
C         -1.32604         3.40243         0.61353
C          0.00057         2.62757         0.55782
C          1.30946         3.41219         0.43844
C          2.49388         2.83167        -0.29057
C          3.59902         3.75001        -0.77831
C          4.93702         3.09740        -1.12072
C          6.21030         3.81469        -0.77574
C          7.30740         3.06542        -0.05231
C          8.64997         3.77056         0.01766
C          9.81009         3.10111         0.31073
C         -8.79208         5.21292        -0.57031
C         -7.44099         5.91546        -0.50119
C         -6.25418         5.20100        -1.16707
C         -4.84336         5.89824        -0.80833
C         -3.59000         5.10517        -0.51611
C         -2.33025         5.74735         0.05524
C         -1.37822         4.94172         0.94127
C         -0.00650         5.60616         1.09592
C          1.27959         4.87371         0.84435
C          2.54776         5.68357         0.66845
C          3.59220         5.17554        -0.30309
C          4.92156         5.95890        -0.37201
C          6.12755         5.10087         0.02330
C          7.41573         5.91127        -0.00639
C          8.62086         5.20196        -0.00499
C         -7.41826         7.22860        -0.18245
C         -6.19490         8.06305        -0.21367
C         -4.89091         7.35822        -0.41499
C         -3.69345         7.91590         0.30637
C         -2.35647         7.22362         0.28731
C         -1.28625         7.89339         1.11513
C         -0.03077         7.10953         1.35290
C          1.28445         7.85006         1.47700
C          2.54285         7.14293         1.01984
C          3.56820         8.02461         0.24340
C          4.89791         7.25673         0.41565
C          6.19465         8.02899         0.49052
C          7.39230         7.30833         0.10866
C         -6.18621         9.42666         0.38500
C         -5.04067        10.06845         0.68568
C         -3.75353         9.33302         0.80177
C         -2.46201        10.04621         0.95773
C         -1.28584         9.38774         1.08646
C         -0.00739        10.17477         1.33656
C          1.27184         9.35047         1.47436
C          2.53885        10.08206         1.19370
C          3.65914         9.45104         0.76567
C          4.93835        10.14421         0.68433
C          6.12109         9.49801         0.55506
C        -11.12207        -0.47662         0.84119
C         -9.88549        -1.30057         0.71750
C         -8.70497        -0.64269         0.09077
C         -7.68623        -1.47642        -0.63590
C         -6.40296        -0.78548        -1.02871
C         -5.13486        -1.59619        -1.14660
C         -3.86382        -0.90515        -0.73185
C         -2.58196        -1.67959        -0.67718
C         -1.30162        -0.89096        -0.85038
C         -0.02135        -1.55854        -1.22797
C          1.25434        -0.91470        -0.65085
C          2.55144        -1.50003        -1.22014
C          3.80917        -0.70860        -0.92662
C          5.12815        -1.40900        -1.03848
C          6.39797        -0.61428        -1.26679
C          7.69775        -1.34495        -1.00316
C          8.87990        -0.57293        -0.49270
C          9.94083        -1.29877         0.29497
C         10.75102        -0.47447         1.23415
C         -9.91265        -2.78979         0.75856
C         -8.86254        -3.55286         0.36669
C         -7.72645        -2.95904        -0.40559
C         -6.45843        -3.76254        -0.58041
C         -5.17426        -3.10462        -0.99470
C         -3.88861        -3.91104        -0.86014
C         -2.57248        -3.17982        -0.86928
C         -1.33661        -3.82538        -1.42281
C         -0.02207        -3.04229        -1.52297
C          1.28889        -3.77405        -1.60008
C          2.59407        -2.97905        -1.49564
C          3.87601        -3.73626        -1.23202
C          5.14965        -2.94152        -1.09394
C          6.48242        -3.63798        -1.20591
C          7.72651        -2.83762        -0.88543
C          8.84163        -3.49247        -0.15060
C          9.82195        -2.76974         0.44539
C         -8.94192        -5.06893         0.38838
C         -7.59600        -5.77393         0.53122
C         -6.31333        -5.02236         0.27671
C         -5.27609        -6.17673        -0.92251
C         -3.97333        -5.39948        -1.21551
C         -2.65271        -6.13056        -1.27369
C         -1.34158        -5.32735        -1.46364
C         -0.00691        -6.04688        -1.40345
C          1.29013        -5.24794        -1.25896
C          2.60996        -5.97239        -1.19244
C          3.90485        -5.23631        -1.49130
C          5.22699        -5.94820        -1.32225
C          6.49596        -5.13081        -1.10347
C          7.56797        -5.72911        -0.16173
C          8.93096        -4.99944        -0.28522
C         -7.52731        -7.06133         0.91778
C         -6.26259        -7.85168         0.85022
C         -5.18093        -7.46881        -0.13916
C         -3.80551        -8.11612        -0.03790
C         -2.58890        -7.55207        -0.76067
C         -1.24341        -8.20368        -0.53599
C          0.02946        -7.49087        -0.98180
C          1.36678        -8.16043        -0.68570
C          2.65016        -7.47893        -1.06449
C          3.96663        -8.12264        -0.68498
C          5.26046        -7.42162        -0.95211
C          6.54848        -8.08420        -0.28882
C          7.71423        -7.17895        -0.43312
C         -5.88037        -8.66431         2.02167
C         -4.65283        -9.19446         2.18372
C         -3.57436        -9.08019         1.18326
C         -2.20744        -9.26378         1.56200
C         -1.11133        -9.33221         0.53025
C          0.21639        -9.24576         1.28635
C          1.44967        -9.14326         0.42281
C          2.62544        -9.63957         0.85843
C          3.98142        -9.34598         0.25307
C          4.98957        -9.09110         1.36610
C          6.14858        -8.46054         1.13753
O          2.40702         2.74512         1.15580
O         -9.65012         1.02410        -1.48387
O         -3.86383         5.70217        -1.82374
O          4.63786        -5.69980        -2.63782
O         -2.05263        -8.55325        -1.68417
O         -8.22154        -2.35872        -1.65578
O          1.39808         1.27278        -1.97052
O          6.84999        -4.49415        -2.34703
O         -3.08871        -3.80561         0.35277
O          1.95837        -5.44463         0.02887
O          4.71917        -8.31841        -1.93523
O         -3.88075        -9.53224        -0.18948
O          8.11296        -2.15987        -2.13607
O         -3.95343         8.18637         1.72420
O          7.70785         0.90759         0.95649
O         -6.57097         3.58557         0.70745
O         -6.02178        -3.79020        -1.97127
O         -0.97217         7.37601         2.43868
O         -1.52103        -4.53496        -2.67057
O         -2.18194         0.57486         0.92075
O         -2.40462         2.86143         1.41633
O         -3.47536        -5.90414        -2.46951
O         -5.49510        -4.93337         1.27168
O         -5.44982         8.13562        -1.50255
O          5.80822         3.72594        -2.13432
O         10.12869        -0.91783        -1.13259
O          0.72996         4.96770         2.18961
O         -6.61515         0.92942         0.74095
O         -6.16263        -8.47236        -0.48260
O          3.20430         8.01126        -1.08951
O          0.01152        -7.10598        -2.38525
O          5.98843         4.52211         1.36326
O         -1.75556         6.66503        -0.92371
O         -0.77965        -0.80501        -2.21235
O          3.09769         4.81645        -1.62501
O          6.74380         3.22169         1.33068
O          5.52030         7.29678         1.66713
O         -5.83021        -1.10927        -2.31877
O         -6.43954         5.23905        -2.51842
O          3.10512         6.16941         1.92608
O         -8.74323        -0.79599         1.53489
O          6.62919         0.26584        -2.40292
O          2.01522        -8.41783        -1.97185
O         -3.35574        -1.38815         0.52529
O          4.55387        -0.99803         0.27197
O          2.61512        -1.99465        -2.57472
O         -4.28852         0.94240        -2.21971
O          4.28376         1.16580        -2.49088
O          4.43423        -3.46417         0.08364
O          0.59676        -3.39001        -2.79949
O         -4.02336         3.31229        -2.01619
O          1.40057         8.58445         2.72577
O          0.18108         1.50430         1.47199
O          9.48297        -5.29097        -1.56828
H          8.92875        -4.84652        -2.25083
O         -1.99391         5.04335         2.23367
H         -1.34214         4.75792         2.91061
O         -6.02155        -6.36023        -2.04390
H         -5.84685        -5.64351        -2.69605
O          0.17406        11.13570         0.28758
H          0.32124        10.66344        -0.55787
O          5.13075         6.37686        -1.72378
H          4.36900         7.00185        -1.91985
O         -9.55459        -5.49066        -0.84096
H         -9.10757        -5.04129        -1.58848
O          6.86548        -9.28594        -0.97646
H          6.08851        -9.89862        -0.92192
O         10.78190         1.60195        -1.12976
H         10.89541         0.65458        -1.39851
O          0.14901        -8.02398         2.04489
H          0.94276        -7.95615         2.61477
O          1.28511        -1.30081         0.74400
H          0.92488        -0.58713         1.31622
O         -9.73108         5.82311         0.31482
H         -9.43429         5.66523         1.23452
O          4.42459       -10.49857        -0.50106
H          3.92565       -10.51175        -1.34678
O          7.00786        -5.50609         1.15764
H          7.58720        -5.93874         1.81900
O         -1.16211       -10.59179        -0.15759
H         -1.93303       -10.55412        -0.77043
H         11.33328        -1.00578         2.00256
H         11.41256         1.43808         1.87101
H         10.72759         3.69183         0.46141
H          9.57325         5.74900         0.06421
H          8.32703         7.87149        -0.04164
H          7.06285        10.06206         0.49080
H          4.92866        11.24160         0.77108
H          2.57788        11.14214         1.49100
H         -0.13848        10.76429         2.28068
H         -2.47438        11.14661         0.96790
H         -5.05842        11.12083         1.00621
H         -7.14647         9.96296         0.42633
H         -8.35036         7.70556         0.16331
H         -9.17911         5.38269        -1.61314
H        -10.87921         3.62492        -0.09585
H        -12.12912         1.37613         0.63120
H        -12.01367        -0.96655         1.26204
H        -10.79412        -3.27243         1.20952
H         -9.61601        -5.40503         1.21630
H         -8.44593        -7.62150         1.15728
H         -6.61918        -8.75807         2.83111
H         -4.40428        -9.71944         3.11779
H         -1.95390        -9.35659         2.62727
H          0.30662       -10.12124         1.98299
H          2.62313       -10.30803         1.73509
H          4.73961        -9.44123         2.38002
H          6.86790        -8.30701         1.95613
H          8.49978        -7.48374        -1.14277
H          9.62954        -5.41019         0.48723
H         10.62825        -3.29386         0.98330
