         204
 CSIRO Nanostructure Databank - Neutral Graphene Oxide Data Set
C        -11.12304         0.69387         0.05722
C         -9.89236         1.46590         0.09096
C         -8.66149         0.76182         0.19466
C         -7.42412         1.44179         0.11179
C         -6.18043         0.71767        -0.02268
C         -4.97711         1.43842        -0.19617
C         -3.74701         0.74581        -0.60507
C         -2.44453         1.42290        -0.43242
C         -1.24334         0.70797        -0.49598
C         -0.00547         1.40834        -0.30229
C          1.23462         0.72911        -0.15198
C          2.42137         1.45113         0.07955
C          3.63553         0.72937         0.50215
C          4.95098         1.50337         0.53886
C          6.18392         0.74397         0.31211
C          7.38568         1.41948        -0.03488
C          8.57672         0.67000        -0.24319
C          9.84155         1.39227        -0.64260
C         11.05696         0.66387        -0.13215
C         -9.88057         2.86693         0.03410
C         -8.65707         3.59250         0.07133
C         -7.41617         2.86739         0.06509
C         -6.17977         3.57366         0.03685
C         -4.94999         2.85182        -0.07076
C         -3.70213         3.55458        -0.11551
C         -2.46702         2.83729        -0.21479
C         -1.23663         3.55229        -0.18973
C         -0.00864         2.83530        -0.21201
C          1.22411         3.55726        -0.20181
C          2.45370         2.85669        -0.03500
C          3.69182         3.61851         0.07320
C          4.93110         2.93116         0.23165
C          6.17973         3.60652         0.06414
C          7.39139         2.86318        -0.06098
C          8.64076         3.57414        -0.17036
C          9.82996         2.85933        -0.32292
C         -8.62608         5.00786         0.09623
C         -7.40686         5.72174         0.11511
C         -6.16602         4.99751         0.06924
C         -4.92769         5.69856         0.04824
C         -3.69388         4.97486        -0.02980
C         -2.45723         5.68964        -0.05417
C         -1.23016         4.97749        -0.12670
C          0.00960         5.68921        -0.21431
C          1.21915         4.97153        -0.31567
C          2.48577         5.67039        -0.70643
C          3.69897         5.00405        -0.13002
C          4.90548         5.78484         0.32025
C          6.19664         5.02862         0.08110
C          7.42829         5.71699         0.05795
C          8.62084         5.00629        -0.07288
C         -7.36746         7.14361         0.16305
C         -6.15396         7.84239         0.16010
C         -4.91307         7.12300         0.09571
C         -3.67647         7.83101         0.06640
C         -2.44698         7.11778        -0.01515
C         -1.20711         7.82707        -0.07303
C          0.01377         7.12160        -0.19267
C          1.26982         7.83353        -0.28310
C          2.46093         7.15201        -0.47753
C          3.74192         7.88038        -0.77506
C          4.97250         7.19370        -0.20994
C          6.14695         7.88359        -0.17173
C          7.44341         7.22173         0.24963
C         -6.10727         9.28108         0.21019
C         -4.91767         9.95793         0.18923
C         -3.66138         9.26339         0.11106
C         -2.43368         9.95117         0.07432
C         -1.20550         9.26533        -0.02246
C          0.04390         9.95804        -0.07499
C          1.25448         9.28771        -0.20114
C          2.51012         9.99759        -0.25493
C          3.70592         9.35064        -0.44042
C          4.98133        10.02721        -0.45227
C          6.14819         9.31877        -0.40505
C        -11.14062        -0.67120         0.10530
C         -9.93352        -1.44995         0.27269
C         -8.69121        -0.68010         0.47676
C         -7.37801        -1.43835         0.44581
C         -6.15837        -0.71587         0.04040
C         -4.98905        -1.45300        -0.14643
C         -3.75657        -0.80279        -0.60215
C         -2.48188        -1.49425        -0.47135
C         -1.25290        -0.75599        -0.95822
C          0.07080        -1.49947        -0.67131
C          1.29556        -0.74502        -0.26987
C          2.47379        -1.46708         0.26530
C          3.68722        -0.74358         0.44123
C          4.91777        -1.38725         0.56797
C          6.14326        -0.66243         0.35557
C          7.30837        -1.39658        -0.01537
C          8.56597        -0.74889        -0.20876
C          9.83658        -1.48630        -0.13580
C         11.03169        -0.66701         0.07128
C         -9.90187        -2.83009         0.25495
C         -8.66856        -3.59002         0.27794
C         -7.42636        -2.89567         0.26699
C         -6.20730        -3.59119         0.17292
C         -4.95745        -2.87233         0.07793
C         -3.73336        -3.55737         0.12320
C         -2.46622        -2.84664        -0.06787
C         -1.25153        -3.54138         0.08172
C          0.03784        -3.01794        -0.49003
C          1.25849        -3.60633         0.21309
C          2.43627        -2.86807         0.43722
C          3.66614        -3.57977         0.88258
C          5.00823        -2.84111         0.97475
C          6.10729        -3.57676         0.21980
C          7.11463        -2.78814        -0.29860
C          8.97022        -3.83112        -0.31288
C          9.99674        -2.86275        -0.02199
C         -8.65957        -5.00413         0.21813
C         -7.45050        -5.73441         0.20113
C         -6.21340        -5.01180         0.18621
C         -4.97789        -5.70608         0.24617
C         -3.74005        -4.98880         0.25860
C         -2.52468        -5.70337         0.34162
C         -1.27627        -4.95275         0.47675
C         -0.00120        -5.75212         0.53499
C          1.26674        -5.02430         0.34249
C          2.45280        -5.75778         0.34370
C          3.71225        -5.06546         0.63363
C          4.98030        -5.76205         0.33914
C          6.17978        -5.02231         0.16218
C          7.42858        -5.74639         0.05262
C          8.73139        -5.10304         0.16578
C         -7.39688        -7.16888         0.12619
C         -6.19805        -7.87613         0.19924
C         -4.97524        -7.12133         0.39953
C         -3.74439        -7.73486         0.68317
C         -2.49615        -7.11419         0.46608
C         -1.27418        -7.89686         0.29077
C         -0.04045        -7.21003         0.30241
C          1.19535        -7.87914         0.08808
C          2.44179        -7.17721         0.18277
C          3.67506        -7.87268         0.08605
C          4.93147        -7.16148         0.14744
C          6.16189        -7.86929        -0.01793
C          7.37387        -7.15726         0.02282
C         -6.16933        -9.28589        -0.18898
C         -5.08794       -10.09688        -0.41817
C         -3.73966        -9.77801         0.02347
C         -2.50808        -9.99955        -0.53340
C         -1.28661        -9.28895        -0.12648
C         -0.06164        -9.93276        -0.34198
C          1.19373        -9.28492        -0.17200
C          2.43683        -9.96116        -0.29005
C          3.66056        -9.28459        -0.15036
C          4.92526        -9.97001        -0.26925
C          6.11356        -9.29783        -0.20243
O          5.40832        -2.80387         2.37334
H          4.93624        -3.55192         2.81372
O          0.09338        -3.59137        -1.84219
H          0.61080        -2.95688        -2.39019
O          8.55301         7.81274        -0.43446
H          8.40796         7.71044        -1.39720
O          9.92175         1.31990        -2.12226
H          9.14091         1.79626        -2.47667
O          3.89728         7.83647        -2.24373
H          3.60610         6.92861        -2.52561
O         -7.96660        -1.00294         1.72208
O          4.19520         1.20667         1.77268
O         -0.63254        -5.28164         1.78962
O         -3.90485        -0.01306        -1.83494
O         -3.74170        -9.02324         1.21885
O          2.59228         5.48424        -2.22290
H          1.69442         5.63991        -2.59004
O          1.05447        -1.16025        -1.71503
O          4.79467         5.93225         1.79377
H          4.71701         5.02960         2.17160
O          3.55070        -4.48322         2.02190
O          7.99868        -3.35677        -1.22521
O         -1.37387        -0.70514        -2.40587
H         -0.46794        -0.53052        -2.75141
H         11.94869        -1.18974         0.38596
H         11.98944         1.23154         0.00482
H         10.77942         3.40935        -0.41054
H          9.57238         5.55692        -0.10870
H          7.60458         7.42274         1.34514
H          7.11706         9.83921        -0.40177
H          4.99956        11.12766        -0.46057
H          2.49417        11.09074        -0.11980
H          0.03871        11.05765        -0.02692
H         -2.43295        11.05104         0.11303
H         -4.90845        11.05728         0.22734
H         -7.05631         9.83465         0.26473
H         -8.31418         7.70358         0.20243
H         -9.57486         5.56530         0.10814
H        -10.83126         3.41870        -0.01296
H        -12.06984         1.24457        -0.04671
H        -12.09860        -1.20744         0.02978
H        -10.84649        -3.38588         0.14884
H         -9.61711        -5.54650         0.21151
H         -8.33766        -7.71934        -0.03102
H         -7.14824        -9.67990        -0.51097
H         -5.25642       -11.04917        -0.94591
H         -2.41463       -10.69632        -1.38058
H         -0.06677       -10.98933        -0.65026
H          2.44095       -11.04323        -0.49110
H          4.91645       -11.05861        -0.42747
H          7.06237        -9.84478        -0.30658
H          8.31817        -7.71934        -0.03906
H          9.52183        -5.64653         0.70553
H         10.98295        -3.23512         0.30011
