         430
 CSIRO Nanostructure Databank - Neutral Graphene Oxide Data Set
C         27.96874        27.33735        -0.20990
C         27.94549        28.74482        -0.36997
C         26.71336        29.45067        -0.52063
C         27.88669        31.59272        -0.56930
C         26.69401        30.82793        -0.60741
C         27.85832        33.04145        -0.61089
C         26.65159        33.78775        -0.65712
C         27.86657        35.90319        -0.54373
C         26.66137        35.17171        -0.67612
C         27.91935        37.35933        -0.67307
C         26.78642        38.08931        -1.19336
C         27.99913        40.21715        -1.11112
C         26.82158        39.45271        -1.36099
C         28.01820        41.62416        -1.12737
C         26.87256        42.39723        -1.54654
C         27.96919        44.52067        -1.03978
C         26.86758        43.76679        -1.55737
C         28.02454        45.90997        -1.07733
C         30.38825        27.35745         0.08089
C         29.16882        26.67535         0.04854
C         30.41801        28.76724        -0.20435
C         29.16539        29.46794        -0.36156
C         30.36355        31.60280        -0.54274
C         29.14876        30.90130        -0.48189
C         30.35724        33.05234        -0.66443
C         29.07442        33.76732        -0.54685
C         30.29291        35.85676         0.04965
C         29.07470        35.16948        -0.42802
C         30.23678        37.37448         0.20172
C         29.08856        38.05766        -0.40276
C         30.42316        40.22549        -0.31070
C         29.28806        39.45228        -0.94555
C         30.37636        41.65765        -0.30802
C         29.18715        42.32674        -0.66458
C         30.37517        44.56386        -0.10538
C         29.07551        43.76972        -0.43962
C         30.39950        45.99977        -0.42383
C         29.20648        46.62639        -0.78023
C         32.84754        24.51311         0.47253
C         31.68453        25.19330         0.52998
C         32.92037        27.31288         0.08420
C         31.64630        26.69756         0.60599
C         32.92590        28.70381        -0.49484
C         31.63358        29.45138        -0.35460
C         32.88735        31.64097        -0.24916
C         31.66831        30.89380        -0.77819
C         32.88649        33.02612        -0.15543
C         31.66331        33.79949        -0.46544
C         32.79625        35.88469         0.21500
C         31.61649        35.20984        -0.03102
C         32.81949        37.33968         0.50227
C         31.51994        38.11456         0.40647
C         32.81060        40.25219         0.33568
C         31.56875        39.55624         0.09728
C         32.77931        41.66329         0.31847
C         31.57982        42.38789         0.03600
C         32.85493        44.52898         0.05453
C         31.61842        43.80118        -0.02466
C         32.85510        45.97090        -0.14976
C         31.67408        46.67818        -0.38466
C         32.91514        48.77144        -0.72476
C         31.74730        48.12167        -0.56814
C         35.40673        23.03756         0.23932
C         35.32534        24.48768         0.27682
C         34.13511        25.18068         0.34146
C         35.37240        27.36444         0.12284
C         34.10983        26.63213         0.15815
C         35.34049        28.80346         0.15919
C         34.13474        29.50255        -0.05296
C         35.32160        31.63808         0.24622
C         34.10677        30.91383        -0.01518
C         35.32057        33.08030         0.24916
C         34.09474        33.76629         0.10790
C         35.27999        35.93157         0.13759
C         34.07012        35.19798         0.14667
C         35.25722        37.37498         0.08540
C         34.08001        38.08026         0.27161
C         35.30041        40.21571         0.39114
C         34.05824        39.52483         0.36926
C         35.32274        41.64642         0.71411
C         33.98135        42.42383         0.66248
C         35.27656        44.61045         0.77043
C         34.02494        43.85848         0.39686
C         35.28866        45.99287         0.15141
C         34.14084        46.65069        -0.18755
C         35.40877        48.85338        -0.23856
C         34.23214        48.04795        -0.78820
C         35.43248        50.26059        -0.22182
C         37.75445        23.11714         1.04595
C         36.56102        22.38538         0.48923
C         37.84431        24.52949         0.53035
C         36.62190        25.20605        -0.02956
C         37.80562        27.39950         0.44998
C         36.58406        26.68778         0.24850
C         37.78064        28.80419         0.56881
C         36.54924        29.52351         0.40700
C         37.76105        31.67993         0.88875
C         36.52213        30.93674         0.45354
C         37.79602        33.13890         0.49654
C         36.54893        33.82316         0.32096
C         37.77958        35.96450         0.18701
C         36.53384        35.23561         0.18679
C         37.78975        37.37682         0.04161
C         36.51385        38.10794        -0.30456
C         37.76032        40.24691         0.13958
C         36.52934        39.55359         0.13104
C         37.77017        41.68196         0.30287
C         36.56525        42.40469         0.50326
C         37.78920        44.49531         0.52714
C         36.55799        43.81627         0.52925
C         37.84456        45.95615         0.29219
C         36.58516        46.69006        -0.01997
C         37.83121        48.85427         0.23042
C         36.60523        48.16877         0.02977
C         37.84018        50.27753         0.22572
C         36.61215        50.95057         0.02750
C         40.29295        20.27425         1.18839
C         39.09503        20.96964         1.13746
C         40.28646        23.08372         0.86245
C         39.06665        22.36627         0.95781
C         40.29356        24.51492         0.73592
C         39.04613        25.22188         0.56742
C         40.27754        27.35179         0.56490
C         39.06511        26.67285         0.49073
C         40.30280        28.81883         0.89101
C         39.01785        29.55412         0.61743
C         40.23130        31.68637         0.12603
C         39.01635        30.91868         0.55976
C         40.29852        33.08762         0.73110
C         38.99831        33.83295         0.49603
C         40.24785        35.97587         0.26067
C         39.01280        35.25841         0.33333
C         40.23385        37.36421         0.06975
C         39.00822        38.08442         0.01233
C         40.23828        40.25561        -0.00589
C         39.01688        39.54940        -0.00626
C         40.25890        41.68746         0.17502
C         39.00739        42.38028         0.33728
C         40.26305        44.46174         0.84041
C         38.99996        43.77761         0.52945
C         40.27199        46.00889         0.95611
C         39.04837        46.72978         0.60619
C         40.30702        48.83406         0.58192
C         39.06595        48.11891         0.45299
C         40.31238        50.26056         0.53787
C         39.09237        50.99237         0.39416
C         40.33987        53.08970         0.52109
C         39.14432        52.40974         0.39616
C         42.76717        20.27409         1.19683
C         41.53054        20.96234         1.08996
C         42.77073        23.08597         0.86023
C         41.53009        22.37945         0.92501
C         42.76413        24.52145         0.72112
C         41.52655        25.21986         0.66672
C         42.75230        27.37232         0.47568
C         41.52701        26.65497         0.57080
C         42.75653        28.81131         0.35537
C         41.54098        29.53556         0.42147
C         42.73393        31.64413         0.10864
C         41.52839        30.92804         0.27796
C         42.71112        33.09013         0.00834
C         41.52396        33.80556         0.20002
C         42.71459        35.92949         0.01942
C         41.52377        35.24538         0.17242
C         42.73060        37.40022         0.34515
C         41.52080        38.06577        -0.30336
C         42.71239        40.23110        -0.03896
C         41.50854        39.55850        -0.07485
C         42.73371        41.72473        -0.25781
C         41.47194        42.40935         0.18847
C         42.74004        44.51551         0.59065
C         41.52060        43.79002         0.51386
C         42.75967        45.94118         0.81703
C         41.54961        46.69373         0.83698
C         42.76671        48.82570         0.83554
C         41.54402        48.12293         0.73628
C         42.78642        50.24185         0.77109
C         41.55453        50.96088         0.64217
C         42.80756        53.06873         0.76079
C         41.56948        52.38565         0.63744
C         43.96233        20.97285         1.14756
C         45.30914        23.08994         0.99766
C         43.98377        22.36911         0.96465
C         45.22945        24.54743         0.58992
C         43.99301        25.24242         0.59048
C         45.22160        27.36951         0.23519
C         43.99144        26.66603         0.42961
C         45.21800        28.80179         0.06863
C         43.98110        29.51183         0.14127
C         45.17953        31.64621        -0.21782
C         43.96403        30.93622         0.02255
C         45.13807        33.07621        -0.40026
C         43.94852        33.76874        -0.29291
C         45.22894        35.95474        -0.35975
C         43.90830        35.24802        -0.58818
C         45.23611        37.39019        -0.16964
C         44.02029        38.11385         0.01721
C         45.19897        40.27717        -0.04129
C         43.98994        39.53036        -0.02439
C         45.20092        41.68994         0.07154
C         44.00194        42.40369         0.18222
C         45.19708        44.50718         0.69137
C         43.99135        43.81406         0.47521
C         45.22355        45.92345         0.83354
C         44.00071        46.62823         0.89922
C         45.28069        48.79906         0.89659
C         44.00655        48.08653         1.26908
C         45.27982        50.20561         0.80260
C         44.02677        50.95488         0.83184
C         43.99984        52.36652         0.84381
C         47.54679        23.01969        -0.03367
C         46.39260        22.38466         0.20726
C         47.68685        24.45549         0.32634
C         46.42478        25.23658         0.35607
C         47.68971        27.33810        -0.10518
C         46.44443        26.64847         0.18559
C         47.67276        28.78577        -0.26673
C         46.43275        29.51270        -0.14626
C         47.63804        31.69457        -0.37903
C         46.40492        30.94023        -0.28425
C         47.65366        33.06422        -0.58840
C         46.36778        33.78893        -0.92143
C         47.66355        35.96476        -0.72026
C         46.40589        35.26607        -0.57477
C         47.66620        37.41292        -0.59402
C         46.46217        38.08829        -0.26463
C         47.67511        40.30251        -0.45090
C         46.50259        39.54023         0.16855
C         47.76331        41.71295         0.08373
C         46.48288        42.50555        -0.05448
C         47.72424        44.50108         0.78678
C         46.45354        43.70682         0.89322
C         47.72105        45.89034         0.75617
C         46.48378        46.62649         0.83026
C         47.73247        48.75689         0.65170
C         46.49530        48.05996         0.80455
C         47.70667        50.16663         0.56302
C         46.51867        50.87112         0.61907
C         50.19606        24.48439        -0.33890
C         48.97396        25.20072         0.07567
C         50.08288        27.30955        -0.83507
C         48.88525        26.64105        -0.21190
C         50.12618        28.79289        -0.57825
C         48.88742        29.47845        -0.41623
C         50.18281        31.69209        -0.51852
C         48.89759        30.94686        -0.24005
C         50.10869        33.11891        -0.83901
C         48.89445        33.79519        -0.76372
C         50.10875        35.94325        -1.21115
C         48.84683        35.23920        -0.93271
C         50.13339        37.46508        -1.02006
C         48.89036        38.13960        -0.65296
C         50.17391        40.17023        -0.13500
C         48.95844        39.52518        -0.34501
C         50.21484        41.51074         0.56009
C         48.92960        42.30046         0.42915
C         50.23746        44.45676         0.55491
C         48.99353        43.71633         0.98581
C         50.21677        45.87894         0.51023
C         48.98220        46.60841         0.64001
C         50.21645        48.70291         0.41834
C         48.97876        48.01724         0.57633
C         51.34835        25.16041        -0.58562
C         52.59641        27.31278        -0.54775
C         51.39399        26.59803        -0.59622
C         52.59102        28.75794        -0.64171
C         51.35047        29.46081        -0.70174
C         52.64307        31.64837        -0.80179
C         51.35766        30.91842        -1.09057
C         52.64051        33.05712        -0.89996
C         51.37963        33.76775        -1.34927
C         52.58671        35.94003        -0.95515
C         51.39764        35.24608        -1.08449
C         52.61441        37.38445        -0.79609
C         51.41372        38.11337        -0.71702
C         52.64904        40.18327        -0.22576
C         51.41667        39.47985        -0.32100
C         52.64844        41.61801        -0.03588
C         51.45522        42.31161         0.21875
C         52.66409        44.46762         0.10691
C         51.43385        43.74403         0.30435
C         52.67495        45.88647         0.14552
C         51.43735        46.59805         0.30890
C         51.39974        48.01738         0.28619
C         55.03599        27.33553        -0.34143
C         53.86535        26.64159        -0.40050
C         55.05024        28.77263        -0.39736
C         53.81751        29.47871        -0.57302
C         55.07230        31.60840        -0.37786
C         53.84062        30.91899        -0.58343
C         55.07289        33.11099        -0.21191
C         53.82087        33.78987        -0.72129
C         55.06787        35.90881        -0.84347
C         53.84149        35.21187        -0.84730
C         55.09042        37.34425        -0.76138
C         53.85968        38.06720        -0.64957
C         55.11729        40.18921        -0.44333
C         53.87293        39.48401        -0.44272
C         55.11854        41.63432        -0.33998
C         53.89413        42.33063        -0.15750
C         55.11371        44.47193        -0.20914
C         53.88780        43.75534        -0.08471
C         55.09977        45.89433        -0.15464
C         53.91980        46.57563         0.01024
C         56.24601        29.48239        -0.23182
C         56.24915        30.88357        -0.20331
C         56.30258        33.79883        -0.75359
C         56.29078        35.13270        -0.96591
C         56.30259        38.07000        -0.71179
C         56.31230        39.45004        -0.57864
C         56.32495        42.37900        -0.44173
C         56.32510        43.75668        -0.38185
O         49.79807        31.37066         0.85479
O         37.39901        46.18045        -1.14812
O         50.06400        36.85344        -2.36821
O         34.61347        42.02744         1.94161
O         48.56865        24.77903         1.45540
O         40.20158        45.13048         2.14083
O         29.95726        36.50502         1.33406
O         29.40497        44.18997         0.92076
O         32.12098        37.79682         1.70448
O         31.16879        33.56493        -1.84861
O         40.04800        31.90439        -1.30946
H         40.06913        31.03262        -1.75716
O         34.53498        47.87280        -2.21032
H         35.40030        47.41244        -2.27270
O         33.10164        28.50178        -1.94907
H         32.81436        29.34190        -2.38831
O         40.38854        28.85356         2.37156
H         41.23216        28.41931         2.62270
O         36.77049        25.09542        -1.49958
H         36.02359        25.58888        -1.90249
O         46.38958        43.15857         2.26247
H         46.00593        43.85206         2.84114
O         35.21580        44.79817         2.22538
H         35.05162        43.90316         2.60954
O         46.47503        43.03243        -1.40613
H         46.51060        42.25138        -2.00721
O         43.69226        35.35857        -2.05564
H         43.22856        36.21315        -2.21768
O         42.54691        37.52403         1.78998
H         43.25862        37.01508         2.23099
O         37.48014        23.25375         2.49738
H         38.26921        23.67079         2.90509
O         55.09337        33.33377         1.24760
H         55.06852        34.30420         1.39054
O         46.74408        39.52909         1.60853
H         45.96008        39.13480         2.04457
O         31.63422        27.02676         2.05063
H         32.41378        26.58810         2.45411
O         49.85703        27.20272        -2.30324
H         50.46949        27.83795        -2.73527
O         46.24371        33.74420        -2.38504
H         45.41165        34.22520        -2.60912
O         47.37523        40.40988        -1.88026
H         48.22045        40.52500        -2.36369
O         50.35830        41.18370         1.98400
H         50.11606        42.00844         2.47909
O         37.70643        31.70580         2.36621
H         38.14704        30.89361         2.69761
O         31.85806        30.91107        -2.26153
H         31.73995        31.86124        -2.52372
O         49.10823        43.54673         2.45678
H         48.21610        43.22155         2.74513
O         29.77731        39.23189        -2.33992
H         29.03070        38.84391        -2.84607
O         36.48038        38.14931        -1.78665
H         37.26013        38.66788        -2.07892
O         40.48469        32.92783         2.16215
H         40.31824        33.79203         2.59231
O         41.69212        37.85768        -1.74571
H         40.86720        38.14061        -2.19339
O         51.17805        30.89591        -2.54492
H         51.27494        31.82784        -2.87580
O         43.97037        48.10271         2.75833
H         43.93444        49.04438         3.03236
O         45.74008        23.07452         2.39707
H         46.59946        23.54782         2.44652
O         42.74650        41.87082        -1.73792
H         41.98943        41.35258        -2.08593
O         51.35330        33.62752        -2.82758
H         50.66937        34.24457        -3.16991
H         27.02388        26.77582        -0.22768
H         25.77256        28.88255        -0.54481
H         25.72484        31.33566        -0.70406
H         25.68458        33.26930        -0.69997
H         25.70216        35.70281        -0.74232
H         25.85295        37.55342        -1.40942
H         25.89488        39.96495        -1.65512
H         25.98895        41.86909        -1.92911
H         25.99575        44.31013        -1.95039
H         27.15620        46.46742        -1.45804
H         29.13348        25.59605         0.24905
H         29.19120        47.71136        -0.95143
H         32.82790        23.41419         0.50486
H         30.74776        24.63016         0.64787
H         32.90274        49.85636        -0.89998
H         30.81183        48.69839        -0.57668
H         34.51359        22.46042        -0.04593
H         34.52089        50.83728        -0.42800
H         36.59256        21.28990         0.40499
H         36.57996        52.04810         0.02634
H         40.29339        19.18390         1.32861
H         38.15393        20.41478         1.25287
H         40.35033        54.18913         0.52402
H         38.21828        52.99177         0.29806
H         42.76615        19.18464         1.34390
H         42.81453        54.16790         0.77504
H         44.90935        20.42966         1.27279
H         44.93711        52.93375         0.92247
H         48.37594        22.50600        -0.54215
H         46.26201        21.33315        -0.08869
H         48.63731        50.73352         0.43355
H         46.55037        51.96398         0.52009
H         50.20499        23.38660        -0.29479
H         50.24266        49.79919         0.38575
H         52.26846        24.58608        -0.76628
H         52.32389        48.59304         0.14972
H         55.99155        26.80453        -0.22151
H         53.89001        25.54639        -0.32651
H         56.04831        46.44225        -0.24954
H         53.94747        47.67220         0.04698
H         57.18586        28.93093        -0.08540
H         57.19778        31.40590        -0.01814
H         57.23963        33.23547        -0.86766
H         57.21564        35.64014        -1.27547
H         57.26294        37.54276        -0.78604
H         57.28329        39.96211        -0.56354
H         57.28148        41.85883        -0.58211
H         57.26876        44.31382        -0.47099
