         424
 CSIRO Nanostructure Databank - Neutral Graphene Oxide Data Set
C          1.23546         2.00299         0.50781
C          1.20641         3.43820         0.48947
C          2.40114         1.31406         0.31858
C          2.31872         4.18106         0.17987
C          1.11731         6.36820         0.25979
C          1.10807         7.75364         0.23614
C          2.32226         5.63870         0.16826
C          2.30846         8.49346         0.15985
C          1.09943        10.68380         0.07809
C          1.09930        12.06602         0.03158
C          2.30597         9.94528         0.13223
C          2.30569        12.80563         0.05686
C          1.12277        15.01031        -0.12464
C          1.14368        16.39852        -0.15983
C          2.31080        14.25731         0.01624
C          2.35696        17.10868        -0.04402
C          2.39258        18.54770        -0.07432
C          3.63529         2.01412         0.06747
C          3.55628         3.47289        -0.32602
C          4.84001         1.36342         0.09438
C          4.83412         4.23057        -0.06708
C          3.54766         6.35587         0.07381
C          3.54281         7.78160         0.10737
C          4.80832         5.64139         0.00127
C          4.78434         8.51130         0.10315
C          3.53535        10.65864         0.14578
C          3.53392        12.09025         0.12734
C          4.77950         9.93586         0.15483
C          4.77666        12.80765         0.20591
C          3.55068        14.95635         0.12413
C          3.57025        16.38171         0.10496
C          4.78194        14.23502         0.24158
C          4.81026        17.08638         0.25673
C          3.57134        19.22933         0.03473
C          4.82298        18.53902         0.20305
C          6.10084         2.07123         0.02477
C          6.06247         3.54064        -0.07299
C          7.28637         1.41777         0.21915
C          7.27328         4.26001        -0.12561
C          6.03326         6.36818         0.01414
C          6.01939         7.80156         0.06626
C          7.27387         5.66736        -0.08495
C          7.25097         8.51909         0.03686
C          6.01554        10.64798         0.16922
C          6.00821        12.10177         0.26342
C          7.22855         9.93211         0.07431
C          7.21357        12.82590         0.43936
C          6.00623        14.95166         0.40003
C          6.00177        16.37513         0.42948
C          7.24297        14.23335         0.53167
C          7.25724        17.11556         0.82556
C          6.02776        19.23193         0.23624
C          7.27890        18.56062         0.39573
C          8.56096         2.19591         0.43089
C          8.53231         3.47500        -0.39786
C          9.83787         1.43506         0.19942
C          9.81819         4.24503        -0.23307
C          8.52500         6.39396        -0.07593
C          8.50615         7.79547        -0.00475
C          9.78393         5.67212        -0.09995
C          9.74776         8.52962         0.09192
C          8.49725        10.70811        -0.16612
C          8.47400        12.05200         0.52896
C          9.75368         9.93325         0.13384
C          9.76524        12.76708         0.71455
C          8.49463        14.96764         0.60226
C          8.52394        16.35328         0.52252
C          9.80075        14.26813         0.94403
C          9.76250        17.06923         0.33304
C          8.47986        19.22178         0.28670
C          9.75212        18.53120         0.24375
C         11.02700         2.05427        -0.13648
C         11.02091         3.53260        -0.32710
C         12.23478         1.25408         0.00566
C         12.23886         4.30567        -0.36353
C         10.99001         6.38265         0.08238
C         10.98492         7.81735         0.19768
C         12.24333         5.68914        -0.01283
C         12.20197         8.52228         0.28296
C         10.97657        10.64062         0.22277
C         11.00427        12.06635         0.31814
C         12.21412         9.93119         0.22999
C         12.18839        12.77405         0.12820
C         11.00516        14.93541         0.31397
C         10.96733        16.37505         0.15271
C         12.15343        14.22509         0.05591
C         12.20407        17.07928        -0.09863
C         10.91225        19.23347         0.03318
C         12.17687        18.55792        -0.40787
C         13.48320         1.60653        -0.50888
C         13.47330         3.75034        -0.74775
C         14.79583         1.23893        -0.15123
C         14.72644         4.30539        -0.43006
C         13.48013         6.36325         0.10978
C         13.47914         7.78830         0.58888
C         14.71239         5.68966        -0.04802
C         14.71504         8.54171         0.17997
C         13.44598        10.66499         0.11213
C         13.42147        12.05944        -0.04633
C         14.69340         9.93840         0.05535
C         14.65837        12.79880        -0.23209
C         13.35740        14.92358        -0.53021
C         13.39844        16.39800        -0.20968
C         14.64476        14.19095        -0.28467
C         14.66480        17.11060        -0.29457
C         13.46707        19.24610        -0.04621
C         14.66198        18.57486        -0.12862
C         15.95173         2.06530        -0.38699
C         15.94209         3.52767        -0.45415
C         17.20459         1.41802        -0.34935
C         17.17201         4.23704        -0.33282
C         15.95699         6.39626         0.02757
C         15.93837         7.82917         0.09603
C         17.17557         5.67359        -0.17129
C         17.15029         8.56205        -0.07619
C         15.90644        10.65931        -0.21778
C         15.88488        12.06120        -0.33964
C         17.13901         9.92924        -0.29850
C         17.11817        12.78621        -0.70484
C         15.91941        14.95865        -0.07181
C         15.85490        16.43151        -0.36965
C         17.12288        14.28516        -0.69583
C         17.14617        17.16948        -0.65621
C         15.93704        19.22537         0.08661
C         17.14537        18.56590        -0.06778
C         18.44011         2.10622        -0.40392
C         18.43192         3.54970        -0.35299
C         19.66782         1.41500        -0.45119
C         19.65799         4.25054        -0.29487
C         18.41055         6.36727        -0.14683
C         18.42954         7.83231         0.20002
C         19.64312         5.68592        -0.20021
C         19.66203         8.55753        -0.26057
C         18.37461        10.60853        -0.84323
C         18.40787        12.09413        -0.64051
C         19.65707         9.91718        -0.48015
C         19.60333        12.79334        -0.63342
C         18.41692        14.98578        -0.52261
C         18.40768        16.38393        -0.36105
C         19.62268        14.25076        -0.51648
C         19.62035        17.06198        -0.09843
C         18.40074        19.20538         0.14079
C         19.62046        18.51690         0.08270
C         20.91013         2.09656        -0.44551
C         20.91639         3.54193        -0.35450
C         22.13710         1.40065        -0.43926
C         22.13956         4.22523        -0.31081
C         20.87596         6.41991        -0.14144
C         20.89234         7.82034        -0.20601
C         22.15811         5.67117         0.10675
C         22.12568         8.55527        -0.29580
C         20.88494        10.66860        -0.56889
C         20.85236        12.06551        -0.65925
C         22.13142         9.94213        -0.47593
C         22.10561        12.84334        -0.94920
C         20.85427        14.94616        -0.30599
C         20.82724        16.33987        -0.03196
C         22.10482        14.25444        -0.41430
C         22.08373        17.02673         0.43889
C         20.86284        19.19748         0.17100
C         22.09479        18.52050         0.19685
C         23.37800         2.08195        -0.41335
C         23.38311         3.52946        -0.40512
C         24.61174         1.39681        -0.37238
C         24.61648         4.22175        -0.48678
C         23.38102         6.43388        -0.31099
C         23.36297         7.80129        -0.30196
C         24.60390         5.69846        -0.79757
C         24.62122         8.56210        -0.17454
C         23.38315        10.68117        -0.56518
C         23.36622        12.08354        -0.63568
C         24.62636         9.99392        -0.46039
C         24.58192        12.80810        -0.56603
C         23.33281        14.93689        -0.27340
C         23.35848        16.33907         0.02298
C         24.57746        14.23750        -0.43396
C         24.56834        17.04713         0.08176
C         23.32549        19.19239         0.16914
C         24.57278        18.50120         0.16973
C         25.84521         2.08754        -0.35466
C         25.85388         3.53240        -0.47867
C         27.07603         1.39856        -0.26952
C         27.10905         4.21681        -0.56042
C         25.90745         6.37980        -0.51261
C         25.94665         7.79250        -0.20308
C         27.14792         5.67585        -0.96457
C         27.16899         8.56402        -0.42251
C         25.85262        10.68913        -0.57287
C         25.80931        12.09791        -0.62074
C         27.13326         9.97690        -0.52480
C         27.03810        12.87053        -0.77976
C         25.81307        14.92406        -0.21825
C         25.81727        16.35309         0.01791
C         27.03658        14.25728        -0.33831
C         27.04218        17.05365         0.10574
C         25.80025        19.18307         0.14961
C         27.04698        18.49567         0.12744
C         28.30765         2.08539        -0.24618
C         28.31991         3.52795        -0.38199
C         29.53702         1.39507        -0.14229
C         29.57738         4.23044        -0.29945
C         28.41658         6.39440        -0.57785
C         28.41617         7.84106        -0.49158
C         29.60082         5.68014        -0.36189
C         29.60615         8.53847        -0.36048
C         28.35240        10.69264        -0.55240
C         28.37256        12.11465        -0.83668
C         29.58180        10.00412        -0.02279
C         29.62175        12.91737        -0.61683
C         28.23754        14.83950         0.36768
C         28.28687        16.34922         0.21607
C         29.56079        14.22161        -0.00339
C         29.48769        17.03366         0.31511
C         28.28790        19.16972         0.10641
C         29.51815        18.47297         0.16948
C         30.76660         2.08323        -0.07316
C         30.77702         3.52939        -0.09650
C         31.99675         1.39250        -0.00462
C         32.02015         4.22781         0.14206
C         30.84914         6.36850        -0.17065
C         30.91597         7.83013        -0.52605
C         32.03011         5.68322         0.12949
C         32.08961         8.56142         0.07061
C         30.89499        10.68607        -0.31237
C         30.94162        12.13239        -0.50863
C         32.07262         9.99208        -0.00158
C         32.14035        12.86876        -0.05080
C         30.75141        14.79262         0.72228
C         30.74832        16.33038         0.67220
C         32.09017        14.16960         0.37008
C         32.05151        17.08616         0.56598
C         30.76343        19.14681         0.03143
C         32.01162        18.49543         0.10260
C         33.21713         2.08555         0.14724
C         33.19945         3.51565         0.33051
C         34.45486         1.40770         0.05455
C         34.44753         4.18947         0.84416
C         33.25471         6.40720         0.37415
C         33.23940         7.82724         0.40176
C         34.49415         5.69236         0.62062
C         34.45445         8.56422         0.84078
C         33.32914        10.72714         0.03518
C         33.36204        12.09597        -0.05179
C         34.53761        10.01776         0.50998
C         34.63658        12.85580        -0.21516
C         33.33278        14.87226         0.89688
C         33.34209        16.35828         0.51449
C         34.59904        14.18516         0.47127
C         34.50112        17.06207         0.30197
C         33.22682        19.13905        -0.18046
C         34.48416        18.48172        -0.06047
C         35.69332         2.09836         0.09452
C         35.72371         3.50012         0.41875
C         36.90973         1.42214        -0.13656
C         36.93079         4.16827         0.53455
C         35.68807         6.33914         0.82056
C         35.74716         7.81258         1.16856
C         36.95794         5.55901         1.12598
C         37.00042         8.44790         0.50078
C         35.84825        10.69763         0.38325
C         35.86849        12.06902         0.16005
C         37.06256         9.96567         0.49905
C         37.10717        12.77054         0.07885
C         35.85421        14.85796         0.60510
C         35.82309        16.42773         0.49123
C         37.07792        14.17788         0.15290
C         37.03832        17.10699         0.03901
C         35.69238        19.16119        -0.26931
C         36.96973        18.51153        -0.24792
C         38.13998         2.09951        -0.06660
C         38.16185         3.49450         0.26163
C         39.37953         1.41665        -0.28018
C         39.40069         4.18790         0.32947
C         38.24945         6.30957         0.81990
C         38.28235         7.80730         1.06474
C         39.41941         5.62876         0.55885
C         39.53248         8.49360         0.54322
C         38.29670        10.61333         0.29972
C         38.34091        12.03458         0.06611
C         39.53653         9.85802         0.30797
C         39.57566        12.72663        -0.02322
C         38.22392        14.94704        -0.23470
C         38.25050        16.41140        -0.09588
C         39.59986        14.15719        -0.33319
C         39.47531        17.09370        -0.32721
C         38.17478        19.18721        -0.51316
C         39.42409        18.51758        -0.49900
C         40.57335         2.08600        -0.17546
C         40.60715         3.48339         0.11700
C         41.85422         4.18433         0.18359
C         40.70682         6.32557         0.51235
C         40.75732         7.73164         0.54815
C         41.89793         5.54134         0.37398
C         42.00047         8.48044         0.60503
C         40.82774        10.55485        -0.09819
C         40.82137        12.05889         0.14251
C         42.03340         9.81924         0.41959
C         41.97430        12.82895         0.27614
C         40.80672        14.94972        -0.11987
C         40.73978        16.40102        -0.32097
C         41.95107        14.24815         0.24173
C         41.90414        17.15787        -0.48915
C         40.64418        19.22739        -0.68714
C         41.85130        18.55350        -0.67616
O         31.36238        16.90464         1.87033
O         13.43972         2.59476        -1.51879
O         25.28307         8.19720         1.09133
O         30.50089        12.70242        -1.79181
O         27.70992        12.55334        -2.06358
O         35.97796        15.74496         1.77936
O         16.92494        13.61020        -1.95743
O         38.82017        14.52275        -1.50083
O         34.21121         9.55813         1.89967
O          9.10011        12.06473         1.85150
O         30.57574        14.43971         2.14377
H         31.32658        14.87923         2.61969
O         18.53530         7.85806         1.67921
H         19.28833         7.27886         1.92681
O         13.16428        14.87002        -2.00025
H         12.29421        15.28143        -2.19259
O         36.89570         8.06631        -0.89828
H         37.64255         8.47769        -1.38311
O         16.19840        14.88659         1.37848
H         15.47940        15.36165         1.84754
O          8.53152        11.02269        -1.59948
H          8.49135        10.17634        -2.09278
O         12.11275        18.61106        -1.89493
H         12.92329        18.16952        -2.22970
O         13.53526         7.70652         2.06571
H         13.57263         8.62494         2.40829
O         27.94965        14.55465         1.78376
H         28.82086        14.56181         2.26171
O         29.48261        10.06371         1.46256
H         28.65768         9.59516         1.71714
O         34.39715         4.04198         2.30581
H         35.24462         4.42294         2.65388
O         24.45191         5.76250        -2.27983
H         25.35581         5.62106        -2.66518
O         27.15138         5.65171        -2.47543
H         27.80500         4.97134        -2.74781
O         38.33657         8.01790         2.50424
H         39.16116         7.59865         2.82815
O         18.26727        10.44313        -2.31170
H         17.66143        11.14088        -2.64525
O         35.87903         7.83970         2.60678
H         35.41086         8.65304         2.91928
O         22.05817        16.88137         1.91327
H         22.87045        17.30965         2.25951
O         34.75426        13.13298        -1.66551
H         34.72050        12.27437        -2.13849
O          8.46653         3.05257        -1.79167
H          8.40380         3.85511        -2.34997
O         40.89731        10.44519        -1.56984
H         41.03466         9.49771        -1.78296
O         22.11418        13.00260        -2.42531
H         22.05597        12.10506        -2.81782
O          8.57954         2.60013         1.83847
H          8.60143         1.78747         2.38544
O          3.41306         3.47400        -1.79638
H          2.59936         2.96704        -2.00390
O          7.21555        17.17774         2.30157
H          7.39726        16.27408         2.63823
O         33.27705        14.83928         2.36794
H         34.11412        15.25748         2.68076
O         22.27142         5.60291         1.59312
H         22.59316         6.47648         1.90569
O          9.95969        14.47055         2.38420
H          9.52823        13.69575         2.81601
O         31.18508         7.85377        -1.99483
H         30.40181         7.45765        -2.43468
O         36.93898         5.35775         2.58795
H         36.79101         6.25828         2.97801
O         17.17296        17.36044        -2.11508
H         16.39377        17.90503        -2.35536
H          0.30665         1.46321         0.73936
H          0.26523         3.92939         0.77467
H          2.42732         0.21971         0.42917
H          0.15794         5.83709         0.32381
H          0.14068         8.26991         0.28963
H          0.13353        10.16222         0.05784
H          0.13407        12.58723        -0.01711
H          0.15479        14.49977        -0.21700
H          0.20276        16.95574        -0.27569
H          1.44501        19.09297        -0.19535
H          4.86638         0.27838         0.28447
H          3.58120        20.32870        -0.00117
H          7.29126         0.32616         0.37134
H          6.02872        20.32161         0.07754
H          9.85570         0.36805         0.47675
H          8.48247        20.30679         0.09615
H         12.15733         0.35468         0.63616
H         10.87261        20.33217        -0.03061
H         14.96414         0.28045         0.36383
H         13.46041        20.33330         0.12757
H         17.22380         0.31883        -0.29504
H         15.93161        20.27944         0.40531
H         19.66168         0.31488        -0.48354
H         18.40919        20.28324         0.36802
H         22.12988         0.30014        -0.43994
H         20.85953        20.29893         0.18599
H         24.61563         0.29664        -0.34765
H         23.33292        20.29105         0.09515
H         27.07303         0.30059        -0.19715
H         25.80091        20.28354         0.16922
H         29.53295         0.29588        -0.09492
H         28.30046        20.26891         0.05265
H         32.00488         0.29468        -0.07632
H         30.74856        20.22628        -0.18421
H         34.45651         0.32308        -0.13124
H         33.21135        20.18847        -0.51144
H         36.89518         0.34528        -0.36172
H         35.66110        20.23938        -0.48514
H         39.36085         0.34387        -0.52085
H         38.15200        20.26595        -0.72871
H         41.52377         1.55566        -0.33341
H         42.78721         3.61746         0.05061
H         42.87419         6.04495         0.38152
H         42.92612         7.95200         0.87570
H         42.99188        10.35135         0.50121
H         42.94970        12.34199         0.41425
H         42.89260        14.78602         0.42431
H         42.88405        16.66033        -0.49417
H         40.61636        20.31714        -0.83012
H         42.78928        19.10894        -0.81668
