         620
 CSIRO Nanostructure Databank - Neutral Graphene Oxide Data Set
C         23.15762        27.79169         1.93051
C         23.12741        29.09163         1.49003
C         23.18283        31.93580         0.75382
C         23.14668        33.25905         0.31131
C         22.97451        35.93088        -0.92419
C         22.96807        37.32950        -1.06272
C         22.92915        40.26831        -1.23825
C         22.93840        41.64604        -1.29759
C         22.97234        44.58803        -1.31976
C         22.96606        45.93423        -1.45681
C         25.51498        24.90480         2.21853
C         24.36803        25.66033         2.29254
C         25.52004        27.57967         1.28306
C         24.34927        27.00924         1.83301
C         25.49191        28.94043         0.79234
C         24.26946        29.70327         0.89212
C         25.30924        31.54513        -0.44777
C         24.22316        31.04664         0.41620
C         25.31777        32.98661        -0.82957
C         24.16703        33.81685        -0.47844
C         25.42992        35.83412        -1.26419
C         24.15143        35.17902        -0.92080
C         25.43328        37.37863        -1.24517
C         24.13994        38.08000        -1.10322
C         25.36384        40.23068        -1.10522
C         24.13353        39.52361        -1.12916
C         25.37017        41.63133        -1.21915
C         24.15913        42.37460        -1.30000
C         25.43494        44.51162        -1.39175
C         24.19443        43.81344        -1.37754
C         25.46761        45.94338        -1.41038
C         24.21764        46.67975        -1.83110
C         25.34074        48.74991        -1.04171
C         24.20583        48.10906        -1.38043
C         27.96099        23.28757         1.94391
C         27.93974        24.68723         1.65280
C         26.72423        25.44922         1.70015
C         27.91839        27.36153         0.70515
C         26.72657        26.80132         1.22788
C         27.86115        28.69414         0.08907
C         26.65764        29.50609         0.26188
C         27.91849        31.55058        -0.57515
C         26.64037        30.78706        -0.46528
C         27.92866        32.95880        -0.67872
C         26.70402        33.70475        -0.99496
C         27.89148        35.87109        -0.75646
C         26.70418        35.16504        -0.95123
C         27.88594        37.34004        -0.68977
C         26.67622        38.03972        -0.82565
C         27.86499        40.25712        -0.43772
C         26.59641        39.50595        -0.67319
C         27.95097        41.61967        -1.05840
C         26.65740        42.33828        -1.38721
C         27.89540        44.49736        -1.25066
C         26.67799        43.80763        -1.35104
C         27.90924        45.92511        -1.07726
C         26.65728        46.63341        -1.16269
C         27.80050        48.77242        -0.70398
C         26.63174        48.07989        -0.98862
C         27.82669        50.20079        -0.58083
C         30.38301        23.19469         1.65738
C         29.12426        22.56162         1.88311
C         30.39975        24.61698         1.41665
C         29.16144        25.32677         1.30730
C         30.38279        27.30096         0.44093
C         29.15862        26.67420         0.80735
C         30.44116        28.59429        -0.35234
C         29.13178        29.37364        -0.39009
C         30.37156        31.55801        -0.28793
C         29.14894        30.85705        -0.40017
C         30.38038        32.99333        -0.29153
C         29.13189        33.71087        -0.46881
C         30.31058        35.88565        -0.15706
C         29.09724        35.13069        -0.49024
C         30.35394        37.34083        -0.40671
C         29.13231        38.03607        -0.48869
C         30.35370        40.20010        -0.71335
C         29.16394        39.50478        -0.12201
C         30.42600        41.68835        -0.49559
C         29.17545        42.41550        -0.92288
C         30.40109        44.54884        -1.24021
C         29.14364        43.76992        -1.13098
C         30.37846        45.97866        -0.90990
C         29.12199        46.61575        -0.81807
C         30.34386        48.82058        -0.58823
C         29.07045        48.03741        -0.33101
C         30.27793        50.20200        -0.50938
C         29.00557        50.87596        -0.43781
C         32.72508        20.33918         0.99997
C         31.58226        21.06104         1.17758
C         32.85456        23.12729         1.74974
C         31.58240        22.44132         1.57098
C         32.88700        24.65654         1.47538
C         31.61014        25.30114         1.16205
C         32.86237        27.31816         0.46227
C         31.60686        26.63579         0.66960
C         32.86240        28.72656         0.19795
C         31.64341        29.43324        -0.00423
C         32.85592        31.56448        -0.07838
C         31.62189        30.83556        -0.12373
C         32.85655        32.98966        -0.16919
C         31.61529        33.68352        -0.20798
C         32.89452        35.88794        -0.27410
C         31.63926        35.14513        -0.05360
C         32.87063        37.31425        -0.43888
C         31.60993        37.99948        -0.50299
C         32.91793        40.20523        -0.86049
C         31.57401        39.42981        -0.84998
C         32.90240        41.68273        -0.76393
C         31.71091        42.35473        -0.91300
C         32.93735        44.56124        -0.82866
C         31.72501        43.80718        -1.14304
C         32.87821        45.97868        -0.74926
C         31.61458        46.67663        -0.75264
C         32.83347        48.79981        -0.52036
C         31.61065        48.10958        -0.63470
C         32.84744        50.27195        -0.54350
C         31.50814        51.02089        -0.55666
C         32.66969        52.98966         0.35422
C         31.50920        52.37585         0.00161
C         35.22514        19.10635        -0.17509
C         35.31101        20.07809         0.97265
C         34.05650        20.88167         1.32651
C         35.40188        23.11974         1.46233
C         34.13929        22.36881         1.64510
C         35.39100        24.53097         1.19453
C         34.14792        25.25111         1.02912
C         35.30694        27.31213         0.27974
C         34.10180        26.61161         0.57334
C         35.32695        28.71543         0.17284
C         34.09328        29.44238         0.16289
C         35.32976        31.57244        -0.00180
C         34.09194        30.85850         0.02550
C         35.32172        32.99803        -0.08706
C         34.09390        33.71834        -0.16567
C         35.36024        35.86095        -0.34599
C         34.10546        35.15817        -0.27497
C         35.37244        37.31559        -0.43950
C         34.11511        38.03363        -0.50042
C         35.33772        40.21699        -0.49074
C         34.15336        39.46930        -0.54615
C         35.35605        41.66070        -0.48472
C         34.14769        42.39390        -0.62941
C         35.38102        44.51738        -0.49094
C         34.15521        43.82782        -0.62351
C         35.40439        45.99455        -0.81396
C         34.09690        46.71207        -0.58579
C         35.32858        48.85721        -0.24514
C         34.08497        48.10353        -0.43972
C         35.26848        50.23146         0.01665
C         34.03099        50.97147        -0.01541
C         35.09303        52.99104         0.99433
C         33.93883        52.31479         0.35030
C         35.10690        54.42649         1.27209
C         37.67400        19.00970        -0.20878
C         36.36730        18.52798        -0.61828
C         37.73490        20.30339         0.40858
C         36.54014        20.94978         0.83583
C         37.87402        22.83071         1.53144
C         36.58049        22.28877         1.30787
C         37.86575        24.85578         1.30545
C         36.59556        25.27126         0.89238
C         37.81399        27.30995         0.08997
C         36.54015        26.50283         0.00316
C         37.81462        28.68927         0.09611
C         36.56715        29.43536         0.09294
C         37.81576        31.57180         0.05473
C         36.56616        30.84542         0.04047
C         37.79713        33.00009         0.02413
C         36.56474        33.71280        -0.09325
C         37.85418        35.81762        -0.39810
C         36.55977        35.12943        -0.26142
C         37.86621        37.34201        -0.51097
C         36.57457        38.02944        -0.44512
C         37.84938        40.22671        -0.17349
C         36.63924        39.50800        -0.72960
C         37.82076        41.63990        -0.10100
C         36.58815        42.36865        -0.30554
C         37.82236        44.53594        -0.11284
C         36.59289        43.80051        -0.30496
C         37.78980        45.96634        -0.09577
C         36.60993        46.71400        -0.26768
C         37.80465        48.84925         0.11274
C         36.59535        48.14583        -0.16807
C         37.84061        50.31793         0.18271
C         36.50920        51.02486         0.15283
C         37.69944        53.08576         1.12514
C         36.46097        52.30908         0.89910
C         37.49931        54.30174         1.75814
C         36.24370        54.99645         1.75934
C         39.98998        16.18567        -1.10102
C         38.86156        16.91347        -0.90047
C         40.12654        18.97082        -0.36994
C         38.87825        18.32307        -0.54324
C         40.19227        20.29603         0.13781
C         38.99710        20.96887         0.50033
C         40.29253        23.05669         0.92228
C         39.07024        22.29600         1.01550
C         40.28556        24.48987         0.79753
C         39.09832        25.26048         0.73809
C         40.35183        27.31376         0.16155
C         39.09490        26.52643        -0.07173
C         40.29162        28.73010         0.03460
C         39.07457        29.42487         0.05469
C         40.27929        31.59699         0.20157
C         39.04718        30.86642         0.08021
C         40.24490        32.99662         0.34836
C         39.03388        33.72231         0.16051
C         40.27078        35.89254         0.22172
C         39.06926        35.13385         0.04920
C         40.22756        37.34002         0.23265
C         39.08490        38.06639        -0.07880
C         40.24893        40.22379         0.37447
C         39.05004        39.50938         0.05941
C         40.24064        41.65962         0.41040
C         39.02597        42.36707         0.16440
C         40.26329        44.46797         0.40280
C         39.03780        43.80116         0.14987
C         40.31229        45.93209         0.27748
C         39.05818        46.70909         0.03761
C         40.20940        48.86719         0.60437
C         39.02683        48.16392         0.31459
C         40.21510        50.28704         0.77852
C         39.03900        51.03351         0.67820
C         40.21711        53.20571         0.82350
C         39.01516        52.47373         0.89212
C         40.37391        54.65737         0.86255
C         39.48222        55.50941         1.55818
C         40.68073        57.49447         0.92054
C         39.60558        56.90186         1.57414
C         42.55770        16.06866        -1.00884
C         41.31403        16.82240        -1.18288
C         42.66341        18.83723        -0.31479
C         41.37638        18.31516        -0.78748
C         42.67009        20.15296         0.32579
C         41.44309        20.95070         0.36763
C         42.77274        23.02836         0.61992
C         41.50180        22.32667         0.67300
C         42.74390        24.46289         0.62404
C         41.54664        25.17573         0.56174
C         42.81420        27.33663         0.41260
C         41.54651        26.61800         0.37282
C         42.81609        28.76122         0.16468
C         41.56063        29.45577        -0.30237
C         42.74208        31.59447         0.07845
C         41.54164        30.90889         0.09196
C         42.79196        33.03058         0.37548
C         41.48371        33.75451         0.54406
C         42.75711        35.88488         0.47512
C         41.49509        35.21629         0.40285
C         42.76354        37.31072         0.81678
C         41.41814        38.05699         0.71602
C         42.69568        40.16533         0.80514
C         41.46894        39.51420         0.59952
C         42.66969        41.61846         1.02176
C         41.44051        42.36525         0.71177
C         42.74635        44.49877         0.78539
C         41.47026        43.77652         0.68927
C         42.77102        45.92302         0.78210
C         41.48435        46.63513         0.86744
C         42.75221        48.81850         0.78466
C         41.45769        48.12852         0.93497
C         42.74817        50.21606         0.61352
C         41.51162        50.97899         0.91938
C         42.66228        53.11566         0.06097
C         41.50930        52.48154         0.74817
C         42.62832        54.46525        -0.23251
C         41.53516        55.27277         0.29587
C         42.82679        57.33618        -0.25473
C         41.66195        56.69041         0.31618
C         43.74480        16.70181        -0.79581
C         45.13805        18.79024        -0.37831
C         43.84120        18.11525        -0.48924
C         45.20469        20.18169        -0.13311
C         44.03513        20.89833         0.38696
C         45.21137        23.08324         0.05163
C         43.99125        22.36062         0.39668
C         45.22929        24.46964         0.17402
C         44.05810        25.15623         0.84452
C         45.28091        27.32151         0.72873
C         43.99679        26.63772         0.60506
C         45.26850        28.85524         0.49386
C         43.99791        29.49130         0.13070
C         45.21204        31.66556        -0.09931
C         44.00823        30.91974        -0.07416
C         45.25476        33.07909        -0.04069
C         43.95219        33.80855        -0.20084
C         45.22250        35.93203         0.30179
C         43.97756        35.23326         0.26706
C         45.22827        37.35513         0.44858
C         44.00613        38.07173         0.66552
C         45.18392        40.23715         0.62480
C         43.95579        39.48154         0.76842
C         45.22762        41.62239         0.71976
C         43.99727        42.36679         1.03958
C         45.22375        44.51648         0.78119
C         43.97629        43.81991         0.82691
C         45.22230        45.94740         0.73299
C         43.97338        46.64467         0.76246
C         45.17853        48.79782         0.48693
C         43.95775        48.09243         0.68957
C         45.16298        50.19765         0.22928
C         43.92527        50.89458         0.27818
C         45.11114        52.91788        -0.75149
C         43.82783        52.26751        -0.26410
C         45.08779        54.37893        -1.08456
C         43.76855        55.15513        -0.89754
C         43.82147        56.62588        -0.82321
C         47.55895        18.80193        -0.74704
C         46.34889        18.12299        -0.69570
C         47.63607        20.20073        -0.58777
C         46.41549        20.91604        -0.33861
C         47.64571        23.04637        -0.62954
C         46.39342        22.33675        -0.31469
C         47.67573        24.56006        -0.54846
C         46.36490        25.33190        -0.33838
C         47.77727        27.34376         0.48797
C         46.50638        26.61212         0.44399
C         47.79780        28.81069         0.23974
C         46.51257        29.46489        -0.01648
C         47.75038        31.68771        -0.15311
C         46.48732        30.95903        -0.27928
C         47.72875        33.09650        -0.04598
C         46.46901        33.79600         0.00274
C         47.69830        35.94489         0.14306
C         46.46407        35.23375         0.13186
C         47.69575        37.37832         0.20423
C         46.46097        38.05359         0.32043
C         47.73167        40.28279         0.24804
C         46.40146        39.51660         0.22597
C         47.68847        41.68446         0.63969
C         46.47375        42.35741         0.68754
C         47.69466        44.51940         0.76909
C         46.45742        43.80618         0.79583
C         47.68433        45.95192         0.70348
C         46.44609        46.66317         0.68022
C         47.62671        48.83082         0.50474
C         46.42697        48.09795         0.53714
C         47.63582        50.22920         0.23405
C         46.40082        50.90034         0.00231
C         47.59096        53.00533        -0.45869
C         46.39527        52.27380        -0.38381
C         47.53776        54.41824        -0.79173
C         46.38549        55.07164        -1.07470
C         50.14995        20.23187        -0.71799
C         48.91050        20.90852        -0.62697
C         50.15815        23.04201        -0.61582
C         48.93281        22.32423        -0.57817
C         50.17374        24.48275        -0.41690
C         48.98090        25.16640        -0.23500
C         50.25023        27.31713        -0.21741
C         49.02854        26.57601         0.20442
C         50.22874        28.80611        -0.21979
C         48.95264        29.51803        -0.00799
C         50.20000        31.67024        -0.15372
C         48.96551        30.96365        -0.13659
C         50.19850        33.09229        -0.11911
C         48.96309        33.81253        -0.02976
C         50.18106        35.95019         0.02054
C         48.94645        35.23780         0.05222
C         50.19300        37.38810         0.13256
C         48.95678        38.10670         0.21506
C         50.20614        40.23979         0.47174
C         48.98148        39.51262         0.35580
C         50.21472        41.65292         0.64766
C         48.95378        42.35714         1.09229
C         50.16451        44.53583         0.73763
C         48.94332        43.83689         0.80901
C         50.15086        45.97531         0.69996
C         48.91739        46.65626         0.72077
C         50.18527        48.89077         0.70722
C         48.87925        48.12489         0.81883
C         50.13279        50.29627         0.25808
C         48.87813        50.95272         0.10057
C         50.08709        53.00943        -0.44033
C         48.84998        52.33821        -0.24643
C         51.34818        20.92859        -0.78114
C         52.65722        23.06753        -0.78427
C         51.39068        22.33914        -0.73129
C         52.70896        24.45265        -0.46720
C         51.46006        25.17667        -0.25989
C         52.74555        27.29768         0.16787
C         51.50338        26.54523        -0.09254
C         52.72851        28.80646         0.07145
C         51.47934        29.55869        -0.12702
C         52.70371        31.67574        -0.14719
C         51.45843        30.94583        -0.14271
C         52.69159        33.08461        -0.23584
C         51.43853        33.81574        -0.18367
C         52.62648        36.00465        -0.38226
C         51.39631        35.22827        -0.15071
C         52.66763        37.42225         0.00159
C         51.42934        38.10608         0.17892
C         52.67387        40.23883         0.37809
C         51.44358        39.52785         0.35481
C         52.67495        41.66901         0.46390
C         51.42490        42.37945         0.60802
C         52.64326        44.54574         0.64994
C         51.41931        43.81753         0.68943
C         52.62252        45.96558         0.63229
C         51.39829        46.70322         0.62249
C         52.64010        48.85195         0.34997
C         51.42329        48.11740         0.53621
C         52.61594        50.26716         0.14408
C         51.34435        50.97247         0.01723
C         51.29032        52.34692        -0.33501
C         55.05169        23.12676        -1.23308
C         53.85920        22.42623        -1.15483
C         55.12711        24.49629        -0.88301
C         53.94307        25.15234        -0.48472
C         55.20512        27.37439        -0.47724
C         54.07397        26.54235         0.11326
C         55.20716        28.78254        -0.41848
C         53.98575        29.54205        -0.14792
C         55.25122        31.66393        -0.08320
C         53.93985        30.92883        -0.16966
C         55.16747        33.13865        -0.36891
C         53.94568        33.79178        -0.36115
C         55.18137        35.98427        -0.24325
C         53.93435        35.25645        -0.53401
C         55.14072        37.34968         0.09045
C         53.90643        38.08356         0.14849
C         55.12783        40.23481         0.37998
C         53.91737        39.52110         0.33367
C         55.14273        41.65898         0.36849
C         53.89822        42.38091         0.42448
C         55.10846        44.50787         0.35662
C         53.90329        43.82281         0.51560
C         55.18604        45.95008         0.56758
C         53.87243        46.72587         0.72534
C         55.09786        48.87486         0.28345
C         53.88793        48.17130         0.42773
C         55.05266        50.26428         0.08467
C         53.84146        50.94720         0.03567
C         57.58242        24.59295        -1.32840
C         56.37864        25.24642        -1.01209
C         57.56313        27.40874        -1.22410
C         56.37637        26.67720        -0.90389
C         57.56057        28.84009        -1.19969
C         56.37517        29.50460        -0.82432
C         57.59778        31.74939        -1.15251
C         56.31498        30.96937        -0.90252
C         57.64518        33.17191        -0.76044
C         56.40483        33.86962        -0.51774
C         57.66378        36.07061        -0.51426
C         56.39990        35.26462        -0.35770
C         57.69804        37.22200         0.49217
C         56.39014        38.01030         0.52049
C         57.68357        40.23668         0.40354
C         56.40391        39.51943         0.56732
C         57.64903        41.65854         0.28591
C         56.38664        42.33766         0.26846
C         57.67254        44.56053         0.05698
C         56.34932        43.78372         0.03329
C         57.63007        46.01625         0.29540
C         56.42371        46.68808         0.28917
C         57.61022        48.81077         0.80542
C         56.43295        48.18307         0.09473
C         58.75468        25.30140        -1.57723
C         59.95290        27.45279        -1.83736
C         58.76136        26.70822        -1.55262
C         59.96517        28.81925        -1.77193
C         58.78682        29.57263        -1.44973
C         60.05804        31.71536        -1.20707
C         58.84120        30.98027        -1.29688
C         60.07815        33.06650        -0.93852
C         58.88412        33.82730        -0.70457
C         60.10109        35.94832        -0.19676
C         58.93969        35.25294        -0.42379
C         60.09851        37.37142         0.00542
C         58.94425        38.07172         0.26103
C         60.11105        40.27473         0.28313
C         58.90505        39.52472         0.35014
C         60.10046        41.65326         0.28429
C         58.88926        42.38762         0.27646
C         60.05121        44.56897         0.66243
C         58.91445        43.82756         0.33227
C         60.02511        45.97500         0.78159
C         58.85359        46.71087         0.60709
C         58.76580        48.12091         0.94560
O         38.03972        36.49770        -1.70024
O         39.99988        46.40337        -1.08296
O         26.93974        40.09599         0.68747
O         44.20713        54.66936        -2.20684
O         37.94845        23.94150         2.37963
O         44.25803        52.18387        -1.67877
O         54.66843        46.36569         1.90762
O         37.32645        51.01297        -1.04538
O         47.00867        40.02363        -1.01119
O         32.90611        24.09321         2.83398
O         56.58366        31.51004        -2.21774
O         42.33580        33.35271         1.70821
O         43.44926        20.24531         1.55875
O         31.14111        44.20267        -2.45759
O         32.33044        39.73213        -2.09536
O         38.53039        54.97142         2.42807
O         41.76016        51.84674         2.07626
O         32.29998        50.85783        -1.77410
O         52.66681        28.09493         1.41059
O         34.18044        21.34959         2.71832
O         25.49103        36.61119        -2.49545
O         46.41851        29.97901        -1.38191
O         41.95502        37.59775         2.00177
O         48.67331        26.85639         1.59815
O         50.15421        28.00804        -1.50951
O         56.29641        38.69764         1.81592
O         41.39072        17.88268        -2.18712
O         47.62428        23.90082        -1.86234
O         25.69480        30.71647        -1.58334
O         41.27626        47.30275         2.15767
O         45.36366        28.31969         1.82350
O         35.64329        52.18236         2.10403
O         28.24510        28.75771        -1.37090
O         49.54579        48.66225         2.01920
O         53.21531        35.73976        -1.71813
O         30.88978        35.55894         1.15667
O         57.02450        44.19539        -1.21468
O         27.45668        41.68363        -2.44365
O         43.32589        41.98732         2.29052
O         25.90350        33.21202        -2.12454
O         30.49649        41.87522         0.98292
H         30.07952        41.07070         1.40369
O         48.95273        42.23086         2.57053
H         49.70688        42.75956         2.90926
O         57.83759        36.61517         1.79800
H         57.55965        37.29416         2.45432
O         36.83807        39.59146        -2.19946
H         36.15688        39.02576        -2.62317
O         30.70592        28.16737        -1.73019
H         29.82321        28.00817        -2.14158
O         39.14679        26.11553        -1.50186
H         39.45292        26.89546        -2.01495
O         43.67683        33.84159        -1.64627
H         44.45446        34.23911        -2.09257
O         54.48377        26.29427         1.49223
H         54.11023        27.03342         2.02922
O         35.58500        46.04058        -2.28421
H         36.46099        45.64709        -2.48722
O         36.41396        26.02784        -1.38292
H         37.33438        25.85133        -1.70662
O         44.33106        25.00634         2.29477
H         43.68068        25.55852         2.77931
O         24.24198        46.71403        -3.30568
H         24.28733        45.78484        -3.61684
O         41.60218        29.42905        -1.78322
H         42.42137        29.89487        -2.05904
O         29.30821        39.52243         1.36242
H         28.38489        39.50912         1.71664
O         29.00217        47.92050         1.14786
H         28.90107        48.83028         1.50168
O         35.58067        19.24392         2.14965
H         35.39758        19.81432         2.93259
O         55.70979        31.53265         1.30449
H         55.00511        31.87778         1.89207
O         57.61339        36.67364        -1.83835
H         57.53357        35.95385        -2.49887
O         45.91082        25.77830        -1.66796
H         46.27442        25.12116        -2.31143
O         56.70551        48.37692        -1.34617
H         57.53711        47.89943        -1.55543
H         22.25594        27.33290         2.36072
H         22.18782        29.65552         1.56215
H         22.36742        31.59056         1.40314
H         22.29872        33.88884         0.61349
H         22.01333        35.42083        -0.77222
H         21.99467        37.83700        -1.03576
H         21.96364        39.74679        -1.27142
H         21.97903        42.17409        -1.37208
H         22.02351        44.06983        -1.12310
H         22.01935        46.49229        -1.40503
H         25.49571        23.87272         2.59259
H         23.44861        25.23009         2.71457
H         25.28272        49.80908        -0.75516
H         23.24648        48.64774        -1.39471
H         27.02428        22.76581         2.18014
H         26.89776        50.77939        -0.66790
H         29.09626        21.48206         2.08515
H         28.98184        51.97208        -0.38959
H         32.65668        19.31275         0.61376
H         30.61748        20.58776         0.94495
H         32.61768        54.00894         0.75960
H         30.55833        52.89347         0.18544
H         34.24933        18.76078        -0.54521
H         34.20708        55.03698         1.12012
H         36.31638        17.73222        -1.37619
H         36.24646        56.04666         2.08232
H         39.92838        15.09281        -1.21417
H         37.89301        16.39343        -0.88109
H         40.80506        58.58622         0.92846
H         38.88304        57.50331         2.14004
H         42.51799        14.97010        -1.05494
H         42.87047        58.43462        -0.22762
H         44.65637        16.09123        -0.73220
H         44.66250        57.13996        -1.30715
H         48.46958        18.22473        -0.95656
H         46.34749        17.04231        -0.88959
H         48.47392        54.99088        -0.81933
H         46.42016        56.13397        -1.35224
H         50.17922        19.13453        -0.74767
H         50.10210        54.07267        -0.71145
H         52.28169        20.35386        -0.84827
H         52.21540        52.90514        -0.52832
H         55.94898        22.59057        -1.56874
H         53.85602        21.36255        -1.42825
H         55.98851        50.82197        -0.05669
H         53.86143        52.03486        -0.11138
H         57.61775        23.49666        -1.37943
H         57.55992        49.87077         1.09468
H         59.68210        24.76034        -1.81345
H         60.86769        26.90333        -2.10268
H         60.89828        29.35348        -1.99688
H         61.01703        31.19545        -1.33831
H         61.05030        33.57551        -0.89006
H         61.07553        35.43899        -0.20905
H         61.06894        37.88339        -0.06365
H         61.07876        39.75792         0.25422
H         61.05912        42.18815         0.25477
H         60.99822        44.05483         0.87633
H         60.94551        46.49714         1.08038
H         59.65366        48.60241         1.38271
