         618
 CSIRO Nanostructure Databank - Neutral Graphene Oxide Data Set
C         23.07163        69.95408         0.00807
C         23.05039        71.33106        -0.25086
C         21.91155        71.95502        -0.78503
C         23.10681        74.04420        -1.15097
C         21.93062        73.31185        -1.17172
C         25.44720        65.74430         0.82670
C         25.44832        67.14447         0.75292
C         24.23975        67.88308         0.54944
C         25.45881        70.06260         0.85458
C         24.23187        69.27059         0.43690
C         25.53377        71.44157         0.24221
C         24.22952        72.19797         0.15075
C         25.53971        74.08125        -0.84574
C         24.32281        73.46705        -0.66757
C         27.85139        61.37579         0.99991
C         27.85122        62.78649         0.85375
C         26.66409        63.55987         0.86534
C         27.88118        65.70436         0.69069
C         26.65528        64.98787         0.81038
C         27.91659        67.11345         0.65584
C         26.70184        67.87142         0.72735
C         27.96030        69.97987         0.54295
C         26.73217        69.27889         0.66449
C         28.00568        71.40654         0.31513
C         26.73589        72.08483         0.07663
C         27.94616        74.16917        -0.46284
C         26.77386        73.47356        -0.40419
C         30.38710        57.08222         1.30447
C         30.36411        58.49773         1.15932
C         29.11584        59.21131         1.04198
C         30.30495        61.33462         0.69866
C         29.04644        60.60502         0.94552
C         30.30980        62.79968         0.83083
C         29.12605        63.48635         0.77880
C         30.38277        65.69674         0.64135
C         29.12342        64.93593         0.36278
C         30.41217        67.07769         0.53011
C         29.16234        67.82697         0.56723
C         30.44213        69.95060         0.60305
C         29.16975        69.22137         0.57688
C         30.44841        71.41044         0.40188
C         29.23277        72.11963         0.25495
C         30.41086        74.18258        -0.76360
C         29.24831        73.65564         0.08478
C         32.85487        52.79939         1.26510
C         32.84186        54.20762         1.38922
C         31.63044        54.94124         1.32751
C         32.85162        57.05421         1.52166
C         31.61052        56.35499         1.39217
C         32.84515        58.54699         1.73670
C         31.59243        59.19870         1.21603
C         32.89127        61.37507         1.02544
C         31.64884        60.59860         0.84811
C         32.89314        62.76919         0.91658
C         31.60607        63.48705         1.01142
C         32.90359        65.64269         0.57620
C         31.63502        64.98770         0.89483
C         32.86980        67.01149         0.24840
C         31.67149        67.73602         0.34364
C         32.81899        69.93517        -0.37905
C         31.72659        69.20793         0.39462
C         32.93735        71.38276         0.04900
C         31.74103        71.99973         0.46379
C         32.98724        74.30053        -0.89273
C         31.70376        74.02394        -0.33259
C         35.29535        48.51331         0.93962
C         35.28324        49.92591         1.13795
C         34.07494        50.65465         1.11963
C         35.30928        52.76430         1.42421
C         34.06301        52.06454         1.26669
C         35.29811        54.17196         1.59261
C         34.09059        54.90836         1.55021
C         35.30544        57.08554         1.54616
C         34.07873        56.35371         1.58424
C         35.31707        58.48199         1.22866
C         34.09471        59.20890         1.20040
C         35.33578        61.32715         0.93086
C         34.12931        60.63311         1.05206
C         35.37910        62.79178         1.26866
C         34.10575        63.51943         0.90995
C         35.38153        65.63858         0.57750
C         34.12528        64.91692         0.68995
C         35.40140        67.01745         0.27182
C         34.13905        67.69163        -0.08927
C         35.39092        69.93143        -0.23154
C         34.13747        69.17205        -0.37318
C         35.37115        71.35341        -0.33333
C         34.12746        72.10215        -0.24501
C         35.40358        74.13191        -0.84632
C         34.14643        73.52619        -0.58996
C         37.66454        44.23616        -0.25702
C         37.26958        45.59777        -0.25903
C         36.36786        46.32847         0.50356
C         37.72494        48.47807         0.70904
C         36.48388        47.78211         0.67164
C         37.73517        49.73231         1.56389
C         36.52349        50.61716         1.34174
C         37.79295        52.73924         1.55394
C         36.54788        52.02031         1.47131
C         37.84380        54.14645         1.57909
C         36.57489        54.86703         1.83787
C         37.82386        57.07093         1.40832
C         36.57736        56.40358         1.76192
C         37.78451        58.42030         1.03457
C         36.55845        59.13867         0.98549
C         37.86096        61.31464         0.80507
C         36.56705        60.58316         0.52541
C         37.89046        62.77110         0.87067
C         36.64428        63.51997         0.87745
C         37.86414        65.69405         0.71627
C         36.61485        64.90467         0.72796
C         37.85564        67.10590         0.25567
C         36.60717        67.77571         0.12674
C         37.84508        69.89787        -0.25405
C         36.60136        69.19676        -0.13355
C         37.84444        71.30867        -0.47441
C         36.61310        72.03096        -0.49290
C         37.87454        74.11840        -0.88689
C         36.63133        73.44852        -0.73457
C         40.27865        40.20998        -0.75306
C         40.26202        41.62158        -0.96609
C         39.03552        42.33307        -0.75919
C         40.15395        44.53281        -1.04434
C         38.90902        43.72542        -0.75453
C         40.24960        45.90938        -0.49996
C         39.15782        46.70405        -0.41001
C         40.31889        48.52687         0.70670
C         39.03467        47.73055         0.67600
C         40.32510        49.84550         1.18284
C         39.06382        50.49348         1.60252
C         40.31758        52.72053         1.37804
C         39.06329        52.00351         1.65954
C         40.28807        54.14004         1.26923
C         39.06233        54.85346         1.46096
C         40.27345        56.98272         0.90083
C         39.13078        56.35634         1.67143
C         40.20055        58.37351         0.56490
C         39.02536        59.11958         0.72133
C         40.33556        61.24666         0.72660
C         39.02293        60.56711         0.69047
C         40.39042        62.74896         0.84886
C         39.10614        63.45929         0.82274
C         40.37898        65.57729         0.21431
C         39.16464        64.93178         0.77467
C         40.31011        67.01108        -0.15492
C         39.06024        67.77923         0.03485
C         40.30914        69.90059        -0.40160
C         39.08281        69.19280        -0.19732
C         40.29529        71.26090        -0.71012
C         39.07720        71.98684        -0.70746
C         40.34772        74.10895        -0.93902
C         39.09654        73.42534        -0.86899
C         42.76351        36.16165         0.44422
C         42.74273        37.47258        -0.08923
C         41.52893        38.17058        -0.18897
C         42.70590        40.07523        -1.25110
C         41.46570        39.47522        -0.72530
C         42.70519        41.61622        -1.44794
C         41.47233        42.32220        -1.13727
C         42.75824        44.42575        -0.62982
C         41.48635        43.79662        -1.10350
C         42.76757        45.73176        -0.13899
C         41.58013        46.60772        -0.41648
C         42.76251        48.51183         0.67170
C         41.52799        47.88715         0.37636
C         42.76918        49.85450         1.09680
C         41.55112        50.55620         1.26277
C         42.75509        52.72283         1.19885
C         41.53349        52.01044         1.34572
C         42.73148        54.10366         0.90243
C         41.49792        54.83061         0.94072
C         42.57840        56.86958        -0.02912
C         41.41562        56.23290         0.62183
C         42.64248        58.33807        -0.15698
C         41.37386        59.04083        -0.04083
C         42.74345        61.21706        -0.15776
C         41.45006        60.56325         0.02289
C         42.82694        62.68904        -0.05982
C         41.64257        63.47069         0.42835
C         42.74497        65.58067        -0.51399
C         41.53207        64.88545         0.01916
C         42.89493        67.00612        -0.04290
C         41.59952        67.74705        -0.32469
C         42.86126        69.86344        -0.67544
C         41.62490        69.23137        -0.07557
C         42.83807        71.22727        -0.95879
C         41.53312        71.93363        -1.25743
C         42.81062        74.08347        -1.09140
C         41.57344        73.42684        -1.01971
C         45.14815        33.37575         1.11396
C         43.96716        34.09871         1.05232
C         45.18496        36.01642         0.06446
C         43.95158        35.42727         0.53810
C         45.19451        37.30701        -0.46251
C         43.98809        38.08698        -0.53943
C         45.23118        40.06394        -1.56446
C         43.97858        39.37204        -1.08534
C         45.25221        41.52998        -1.18747
C         44.02729        42.38312        -1.50693
C         45.18880        44.24175        -0.30130
C         43.99138        43.68017        -0.72080
C         45.20503        45.53234         0.48952
C         43.97239        46.37682         0.28800
C         45.26731        48.44327         0.70133
C         43.99946        47.74163         0.57213
C         45.29611        49.81784         0.92501
C         44.06784        50.49309         1.52690
C         45.30514        52.73185         0.94247
C         44.04299        52.01473         1.36752
C         45.15957        54.08115         0.38659
C         43.95773        54.74115         0.45865
C         45.10865        56.91398        -0.10019
C         43.85933        56.10637        -0.10902
C         45.08007        58.32580        -0.49942
C         43.82520        59.02408        -0.44445
C         45.10292        61.13186        -0.85969
C         43.86154        60.47783        -0.52115
C         45.10435        62.57534        -1.19229
C         43.86516        63.34140        -0.92498
C         45.29492        65.48783        -1.02588
C         43.95551        64.83063        -0.95812
C         45.26285        66.92761        -0.94758
C         44.09441        67.68346        -0.66558
C         45.27814        69.77595        -1.19938
C         44.07248        69.09678        -0.80500
C         45.27536        71.22276        -1.31719
C         44.05064        71.93696        -1.19368
C         45.27861        74.05558        -1.33895
C         44.04762        73.37883        -1.23826
C         46.36212        33.94141         0.68925
C         47.64660        35.86570        -0.15189
C         46.41041        35.24653         0.17047
C         47.70016        37.17788        -0.62934
C         46.43878        37.83504        -1.10940
C         47.67654        39.98970        -1.05807
C         46.48781        39.33497        -1.16333
C         47.75260        41.48812        -1.22507
C         46.43417        42.15971        -0.89017
C         47.65825        44.17381        -0.14599
C         46.43991        43.54793        -0.46789
C         47.70080        45.59564         0.15367
C         46.49053        46.30779         0.31356
C         47.74042        48.40549         0.47111
C         46.49689        47.70921         0.47470
C         47.74931        49.84138         0.50960
C         46.52692        50.54982         0.72401
C         47.70497        52.65972         0.23884
C         46.52779        51.95933         0.62252
C         47.66610        54.04994        -0.06208
C         46.33339        54.69069        -0.34668
C         47.60814        56.89460        -0.55757
C         46.40011        56.17977        -0.12650
C         47.53755        58.26636        -0.85006
C         46.27504        58.97466        -0.80665
C         47.42898        61.03755        -1.60613
C         46.25432        60.39104        -1.07053
C         47.39383        62.46173        -1.87633
C         46.38174        63.30169        -1.45415
C         47.77045        65.49695        -1.26734
C         46.47862        64.76693        -1.30961
C         47.71593        66.91045        -1.14012
C         46.48509        67.63150        -1.16880
C         47.75377        69.68095        -1.77509
C         46.46184        69.04465        -1.32799
C         47.70540        71.19940        -1.89224
C         46.47105        71.92905        -1.55149
C         47.75950        74.04324        -1.48479
C         46.50268        73.35567        -1.48787
C         48.91763        37.86554        -0.76728
C         50.13951        39.97373        -1.06928
C         48.93541        39.26068        -0.96222
C         50.23125        41.37430        -0.86475
C         48.99442        42.11040        -0.59731
C         50.05453        44.16090         0.33453
C         48.90049        43.43256        -0.14327
C         50.18641        45.52903         0.32078
C         48.95422        46.28684         0.25839
C         50.23502        48.41450         0.57113
C         48.95691        47.68467         0.42652
C         50.22210        49.85591         0.26992
C         48.97100        50.54545         0.30747
C         50.15058        52.67464        -0.11254
C         48.95207        51.96183         0.15007
C         50.10296        54.08962        -0.29959
C         48.84621        54.77358        -0.30246
C         50.04105        56.94794        -0.69222
C         48.83367        56.19889        -0.58510
C         49.99837        58.35623        -0.91897
C         48.73929        58.97262        -1.16288
C         50.58190        61.43013        -1.39133
C         48.60698        60.30348        -1.68497
C         50.51439        62.86438        -1.23064
C         49.37672        63.58727        -1.64854
C         50.37847        65.69950        -1.04992
C         49.08842        64.89859        -1.22722
C         50.18882        67.06563        -0.47702
C         48.89759        67.70045        -0.70523
C         50.12325        70.04691        -0.61034
C         48.86860        69.20163        -0.83453
C         50.29745        71.12889        -1.69535
C         49.01322        71.93987        -1.87379
C         50.22517        74.06057        -1.42094
C         48.99370        73.38534        -1.55203
C         51.51023        41.96955        -1.07148
C         52.71276        44.21061        -0.87561
C         51.86005        43.19200        -0.46209
C         52.70276        45.54678        -0.34521
C         51.59351        46.11662         0.56734
C         52.72624        48.43514         0.05877
C         51.55933        47.66339         0.52912
C         52.68318        49.84168        -0.04075
C         51.42658        50.55041         0.07435
C         52.59369        52.65437        -0.46203
C         51.40295        51.96867        -0.15558
C         52.52411        54.07850        -0.79804
C         51.28894        54.82345        -0.55564
C         52.53259        56.95166        -0.53077
C         51.29655        56.23556        -0.61656
C         52.46825        58.38295        -0.17945
C         51.19296        59.15018        -0.49553
C         52.37523        61.26513         0.33225
C         51.35160        60.62732        -0.59621
C         52.56089        62.75662         0.10822
C         51.53935        63.50948        -0.45974
C         52.55814        65.63828         0.21503
C         51.53270        64.96408        -0.38668
C         52.53409        67.11720         0.36398
C         51.32968        67.82093        -0.16085
C         52.63202        69.88823        -0.34609
C         51.37656        69.21142        -0.37240
C         52.62490        71.23745        -0.95132
C         51.52584        71.96376        -1.38280
C         52.61068        74.31329        -1.23383
C         51.50159        73.43443        -1.44699
C         53.80864        46.33037        -0.62458
C         55.09578        48.45097        -0.56310
C         53.90761        47.74086        -0.35352
C         55.13082        49.87197        -0.47887
C         53.88207        50.57016        -0.33446
C         55.08194        52.72225        -0.59583
C         53.85283        51.98390        -0.49088
C         55.08804        54.13842        -0.62000
C         53.83889        54.87291        -0.86146
C         54.99426        57.00618        -0.29833
C         53.77050        56.30531        -0.56572
C         54.97420        58.39623         0.00791
C         53.72827        59.14324         0.03025
C         54.87614        61.20013         0.79483
C         53.68600        60.49802         0.27311
C         54.87126        62.68380         0.88502
C         53.73948        63.41724         0.61208
C         55.01889        65.63282         0.84195
C         53.67351        64.90638         0.93888
C         55.07765        67.06906         0.86066
C         53.80914        67.89741         0.68417
C         54.78198        70.43297         0.72829
C         53.80804        69.33763         0.22914
C         54.93565        71.49571        -0.31224
C         53.92456        71.80454        -1.12923
C         55.10131        74.43489        -0.68601
C         53.97522        73.94394        -1.35345
C         56.33362        50.60816        -0.57884
C         57.54764        52.77965        -0.55424
C         56.34176        52.02421        -0.56539
C         57.54533        54.18544        -0.48685
C         56.28136        54.87617        -0.48455
C         57.45328        57.04444        -0.30919
C         56.23816        56.30637        -0.35337
C         57.41652        58.43900        -0.11497
C         56.19812        59.07923         0.18614
C         57.53279        61.08494         1.04311
C         56.18179        60.43291         0.77875
C         57.44534        62.59913         1.26670
C         56.12510        63.37471         1.26312
C         57.44873        65.46430         1.16695
C         56.17559        64.85023         1.06948
C         57.51020        66.86844         1.10840
C         56.33719        67.66640         1.11289
C         56.25364        70.28507         1.17821
C         56.63153        68.99267         1.80729
C         57.13285        71.41757         0.59681
C         56.28064        72.11215        -0.48295
C         57.40109        74.19896         0.17231
C         56.27689        73.63944        -0.36015
C         58.74964        54.96052        -0.45209
C         59.93746        57.13339        -0.34696
C         58.73075        56.35617        -0.39662
C         59.93735        58.52766        -0.31699
C         58.61913        59.25384        -0.51733
C         59.89844        61.40912         0.15442
C         58.60355        60.68742         0.03664
C         59.96711        62.69031         0.90019
C         58.72317        63.34820         1.19364
C         59.90702        65.44818         1.70832
C         58.67737        64.72944         1.35536
C         59.94228        66.90448         1.54829
C         58.79742        67.53729         1.14807
C         59.98515        69.76299         1.11014
C         58.88687        68.91263         0.61389
C         59.78917        71.26230         1.33277
C         58.61377        71.90382         0.51308
C         59.85154        74.08226         0.59890
C         58.51497        73.43526         0.87064
C         61.13475        59.28644        -0.29481
C         62.35521        61.42556        -0.07298
C         61.16329        60.68602        -0.12234
C         62.38798        62.78188         0.35641
C         61.18508        63.36286         0.94165
C         62.52569        65.48728         1.43307
C         61.25886        64.68810         1.55554
C         62.49403        66.98478         1.61618
C         61.17717        67.69722         1.92950
C         62.39862        69.95407         1.70595
C         61.13803        69.14924         1.48149
C         62.28783        71.34469         1.10268
C         61.09445        71.99663         1.01398
C         62.29348        74.20341         0.36057
C         61.02893        73.41979         0.66167
C         63.56754        63.54081         0.26167
C         64.80134        65.66957         0.50151
C         63.66380        64.89216         0.69076
C         64.84904        67.07834         0.78564
C         63.64259        67.79222         1.14757
C         64.83345        69.90322         0.97759
C         63.61803        69.17763         1.20128
C         64.81921        71.31030         0.92317
C         63.53599        71.99606         0.54243
C         64.72526        74.15309         0.95821
C         63.56362        73.48843         0.74152
C         66.05077        67.78705         0.69597
C         67.28819        69.93041         0.87373
C         66.08216        69.19759         0.86081
C         67.28032        71.33107         1.00747
C         66.02648        72.03315         0.98198
C         67.20510        74.16207         1.15745
C         66.00622        73.46808         1.04411
C         68.48577        72.09335         1.10443
C         68.43960        73.46866         1.18716
O         57.19221        68.93844         2.88807
O         34.18053        68.20730        -1.49015
O         60.61790        64.86340         2.84272
O         54.14541        72.76705        -2.13070
O         44.91018        52.65064         2.37013
O         46.30365        37.32982        -2.57586
O         62.91259        66.09362         2.71217
O         51.49780        58.67397         0.88823
O         48.50482        62.96860        -2.54342
O         42.80166        63.23331         1.30404
O         31.60377        64.31901         2.23722
O         40.89766        67.31386        -1.50058
O         53.15316        54.44076        -2.07803
O         36.62902        55.65962         3.06243
O         48.33133        71.66784        -3.14685
O         48.44387        68.62241         0.41321
O         43.02787        56.20397        -1.29586
O         45.87076        56.66162         1.14543
O         31.37925        69.65198         1.74077
O         56.54722        71.52055         1.91485
O         51.00973        48.14318         1.80743
O         42.54362        40.69014        -2.58280
O         51.15114        43.40838         0.73560
O         40.99952        59.88003        -1.19482
O         39.18536        51.17334         2.90121
O         49.71968        60.84616        -2.33624
O         45.24088        40.09334        -3.11806
O         58.94372        61.64292        -1.00480
O         38.62662        65.57457         1.98417
O         52.82711        67.58497         1.74314
O         40.84545        44.36343        -2.32843
O         55.37789        60.50738         2.00287
O         58.17340        69.26429        -0.33400
O         31.83033        73.32043         0.90827
O         42.98954        65.39783        -1.93203
O         40.62783        61.87292         2.00565
O         56.73589        62.91097         2.51142
O         31.02788        60.87785        -0.47623
O         38.02366        46.38759        -1.14613
O         44.04666        62.77783        -2.25090
O         51.89545        61.17594         1.70350
H         51.74680        60.21627         1.88870
O         35.40246        62.81103         2.75691
H         35.31890        63.74671         3.04190
O         23.93054        72.62285         1.53599
H         23.10288        73.14944         1.50371
O         44.16731        50.22726         2.95712
H         44.70346        50.96105         3.33950
O         56.75102        71.75900        -1.80542
H         56.10012        72.14148        -2.43693
O         47.27841        38.01762        -3.36219
H         46.79961        38.84828        -3.62709
O         32.34015        69.98054        -1.75392
H         32.83293        69.28153        -2.24794
O         44.43508        39.01043        -3.61501
H         43.52392        39.40774        -3.63451
O         46.09806        54.52568        -1.78202
H         46.14913        53.57057        -1.99558
O         58.01330        60.51779         2.28561
H         57.32688        60.72383         2.96167
O         61.11398        67.79587         3.38741
H         61.41029        66.91389         3.72646
O         32.83779        58.75669         3.20778
H         33.64548        58.33228         3.56905
O         50.57853        70.42860        -2.92928
H         50.60522        71.08881        -3.65377
O         36.49345        60.49466        -0.95875
H         37.30330        60.03085        -1.26475
O         41.80655        47.04774        -1.81357
H         41.64995        46.25198        -2.37947
O         45.17317        45.13036         1.90937
H         46.01502        44.66419         2.10001
O         41.38566        71.79216        -2.71642
H         42.14308        72.25503        -3.13395
O         53.32838        64.95316         2.35367
H         53.14170        65.89857         2.57468
O         58.47138        59.35590        -1.96695
H         58.84295        60.23535        -2.22111
O         59.05449        71.83591        -0.84560
H         58.76888        70.96831        -1.21546
O         44.21457        42.77253        -2.89898
H         44.21972        41.93491        -3.41985
O         48.05863        69.12098        -3.07478
H         48.45507        69.85195        -3.60975
O         37.57601        49.18750         2.93416
H         37.92904        49.88795         3.53664
O         62.35277        74.42908        -1.06517
H         62.40719        73.53862        -1.48216
O         25.32019        70.28341         2.29957
H         24.74515        71.07831         2.41094
O         63.42947        71.80240        -0.92611
H         64.28498        72.08661        -1.31467
O         50.84450        65.95208        -2.43478
H         50.10890        66.37554        -2.92817
O         49.88630        70.78841         0.61178
H         49.59795        70.13739         1.29128
O         41.78907        69.37452         1.38313
H         41.85393        70.33133         1.59022
O         29.11572        64.83167        -1.12935
H         28.91060        65.72368        -1.48428
O         39.02505        46.94666         1.92990
H         38.63610        47.53939         2.62134
O         43.10886        66.96362         1.38706
H         42.88221        67.85037         1.75538
O         54.05945        70.95209         1.87971
H         54.69353        71.52209         2.37584
O         59.52096        71.36405         2.75065
H         60.31214        71.03902         3.23585
O         47.91187        41.71544        -2.66960
H         47.71716        42.66026        -2.84592
O         58.21048        73.62650         2.27312
H         58.58795        72.86788         2.78279
O         29.36029        74.21308         1.42459
H         30.25979        73.97605         1.75301
O         39.41061        56.56126         3.10166
H         38.62841        56.21306         3.58965
O         51.99700        45.75170         1.90404
H         51.56258        46.39171         2.51331
O         62.54267        70.14140         3.14523
H         62.26200        69.29420         3.57498
H         23.13200        75.05881        -1.57501
H         25.59053        75.05979        -1.34843
H         27.92948        75.21081        -0.81988
H         30.19799        74.69123        -1.71439
H         33.11883        75.18757        -1.53117
H         35.42092        75.19952        -1.11352
H         37.87534        75.20953        -1.02998
H         40.34676        75.20993        -0.92393
H         42.83776        75.18254        -1.03342
H         45.29199        75.15509        -1.30463
H         47.75161        75.13383        -1.33598
H         50.19442        75.15207        -1.27887
H         52.37091        75.33659        -0.90333
H         55.01467        75.41147        -0.18251
H         57.46817        75.29717         0.25028
H         59.86082        75.16341         0.38652
H         62.24559        75.21010         0.84809
H         64.72377        75.25295         1.02050
H         67.19748        75.25975         1.21794
H         22.16742        69.36355        -0.21344
H         21.00681        71.35567        -0.96468
H         21.01547        73.76438        -1.57835
H         24.48474        65.21102         0.84873
H         23.30784        67.32444         0.36750
H         26.89074        60.85403         1.12720
H         25.69833        63.03867         0.95194
H         29.44020        56.52397         1.26558
H         28.18466        58.63200         1.13223
H         31.90162        52.26310         1.14650
H         30.68288        54.39556         1.20485
H         34.33027        47.98768         0.88823
H         33.12320        50.12068         0.98246
H         36.98888        43.50069         0.20856
H         35.59454        45.81893         1.09804
H         39.34393        39.71919        -0.44356
H         38.14281        41.73042        -0.53089
H         41.81739        35.70846         0.77566
H         40.60440        37.69579         0.17149
H         45.14064        32.35063         1.51009
H         43.02365        33.64943         1.39398
H         47.29204        33.36031         0.76847
H         48.58402        35.33511         0.07534
H         49.86622        37.33105        -0.60608
H         51.07508        39.40654        -1.18726
H         52.22392        41.44371        -1.72426
H         53.40076        44.00982        -1.71198
H         54.66160        45.86207        -1.14083
H         56.01827        47.90265        -0.80449
H         57.28920        50.06580        -0.63891
H         58.50907        52.24425        -0.57082
H         59.71626        54.43456        -0.47665
H         60.90006        56.59848        -0.31856
H         62.09579        58.75164        -0.35579
H         63.30309        60.93628        -0.34262
H         64.44821        63.08367        -0.21373
H         65.69322        65.20592         0.05335
H         66.98995        67.24402         0.51393
H         68.24677        69.39635         0.79531
H         69.45065        71.56656         1.12315
H         69.37267        74.04340         1.27208
