         621
 CSIRO Nanostructure Databank - Neutral Graphene Oxide Data Set
C          5.70198        31.78390         0.03331
C          5.86002        33.12097        -0.20758
C          8.41000        27.58968         0.08797
C          8.32919        28.93195        -0.29641
C          7.14210        29.66190         0.15143
C          8.37028        31.79779        -1.27988
C          6.65529        30.79665        -0.43917
C          8.31427        33.17693        -0.96008
C          7.06879        33.83693        -0.60993
C          8.30503        35.97228        -0.32912
C          7.09332        35.21351        -0.38318
C          8.30751        37.36576        -0.11596
C         10.74763        23.19248        -0.07977
C         10.71716        24.57839        -0.30584
C          9.56698        25.37386        -0.01038
C         10.62680        27.37623        -0.92971
C          9.52507        26.76181        -0.24459
C         10.72874        28.83117        -1.05060
C          9.48656        29.59129        -0.88958
C         10.80287        31.71023        -1.21047
C          9.51792        30.98890        -1.13463
C         10.82282        33.21366        -1.06735
C          9.53580        33.89922        -0.83192
C         10.80107        35.92715        -0.21960
C          9.54986        35.25119        -0.47661
C         10.67701        37.23224         0.28942
C          9.52955        38.06200         0.12693
C         10.86953        40.21295        -0.07554
C          9.67171        39.47841         0.18757
C         10.83721        41.64292        -0.05217
C         13.19811        18.82037        -0.25393
C         13.20906        20.28047         0.15552
C         11.94797        21.06482        -0.05248
C         13.16686        23.15840        -0.64266
C         11.94305        22.44224        -0.28222
C         13.13302        24.51516        -1.03082
C         11.86303        25.19487        -0.94278
C         13.51198        27.51978        -1.65844
C         11.61676        26.51233        -1.40507
C         13.30038        28.79629        -0.88933
C         11.97172        29.48828        -1.13755
C         13.28906        31.70401        -0.61667
C         12.01332        30.93410        -0.83914
C         13.27447        33.17807        -0.66617
C         12.09400        33.89199        -0.68517
C         13.33335        36.03722        -0.55388
C         12.07920        35.30800        -0.39771
C         13.39045        37.47844        -0.68779
C         12.45505        38.28736        -0.05304
C         13.13574        40.32221        -1.21344
C         12.12117        39.60068        -0.43126
C         13.05924        41.82925        -1.15845
C         11.95131        42.43377        -0.37943
C         13.22190        44.55076        -0.09597
C         12.04794        43.77676         0.04408
C         13.32767        45.81635         0.47971
C         15.69055        14.54924         0.36890
C         15.66468        15.93562         0.07555
C         14.44521        16.66324        -0.11162
C         15.65074        18.84350        -0.06943
C         14.37720        18.08283        -0.19178
C         15.67396        20.30407        -0.37901
C         14.42441        21.03296        -0.32231
C         15.66374        23.15745        -0.45653
C         14.39628        22.39363        -0.57072
C         15.67455        24.59687        -0.81354
C         14.45807        25.17985        -1.55250
C         15.88384        27.42976        -1.34996
C         14.55602        26.70389        -1.40040
C         15.78924        28.91203        -1.03932
C         14.57500        29.62041        -0.96257
C         15.81195        31.73524        -0.68803
C         14.58550        31.01141        -0.76434
C         15.83039        33.17631        -0.60759
C         14.54793        33.89705        -0.28510
C         15.76645        35.97714        -1.15520
C         14.51778        35.31714        -0.75479
C         15.72376        37.40191        -1.60835
C         14.36822        38.13276        -1.65092
C         15.60143        40.36389        -1.59954
C         14.45525        39.64489        -1.42440
C         15.59245        41.85721        -1.71136
C         14.31568        42.61307        -1.40368
C         15.70445        44.65905        -0.67300
C         14.38250        44.01429        -0.85992
C         15.73496        45.96537        -0.10779
C         14.54277        46.56763         0.43800
C         15.81709        48.61226         0.97231
C         14.61192        47.85629         0.98314
C         15.88170        49.89133         1.58161
C         18.18374        10.61606         2.06027
C         18.14981        11.92041         1.50993
C         16.93845        12.53974         1.12335
C         18.15952        14.56498         0.46827
C         16.90799        13.87438         0.64633
C         18.15478        15.93100         0.06583
C         16.92392        16.61140        -0.02492
C         18.20357        18.73725        -0.42227
C         16.94293        18.07581        -0.05828
C         18.11876        20.17730        -0.76337
C         16.86728        20.94410        -0.59426
C         18.17466        23.16052        -0.80881
C         16.97886        22.41913        -0.24467
C         18.19546        24.57660        -0.78320
C         16.99121        25.29300        -0.82314
C         18.26137        27.46939        -0.74286
C         16.95403        26.75938        -0.50097
C         18.27209        28.85990        -0.88373
C         17.01497        29.60367        -0.89950
C         18.30551        31.70140        -0.51540
C         17.02609        31.00374        -0.74533
C         18.30838        33.20939        -0.42332
C         17.02573        33.90885        -0.63864
C         18.27492        36.04766        -0.92794
C         17.05914        35.32510        -0.83021
C         18.22743        37.53845        -0.96416
C         16.94672        38.22922        -1.32826
C         18.21872        40.42690        -1.68957
C         16.91678        39.66635        -1.77368
C         18.19146        41.88424        -1.49620
C         16.91086        42.62155        -1.59521
C         18.13240        44.71179        -0.97703
C         16.88449        44.01939        -1.08294
C         18.12805        46.08435        -0.58692
C         16.95465        46.70377        -0.10072
C         18.20779        48.82655         0.38519
C         16.99297        48.05269         0.39483
C         18.22741        50.16487         0.94313
C         17.04491        50.68686         1.59582
C         17.83775        52.96960         2.35484
C         16.98692        51.87504         2.43849
C         18.15084        54.04503         3.22703
C         20.56411         6.76730         3.91902
C         20.59495         8.18525         3.63622
C         19.43595         8.73191         3.05385
C         20.61065        10.79833         2.47254
C         19.38459        10.05064         2.54330
C         20.61233        12.05560         1.80702
C         19.39458        12.63115         1.35132
C         20.63999        14.60720         0.52856
C         19.39361        13.93506         0.78640
C         20.62665        15.93305        -0.02105
C         19.41085        16.61381        -0.17070
C         20.69110        18.76795        -0.39179
C         19.38426        18.02740        -0.51081
C         20.59922        20.25961        -0.30252
C         19.39334        20.94331        -0.84077
C         20.76094        23.16372        -0.93023
C         19.42718        22.43591        -0.99300
C         20.74800        24.62157        -0.64950
C         19.46418        25.30914        -0.70596
C         20.75388        27.39284        -0.87753
C         19.45390        26.70220        -0.71575
C         20.77018        28.86260        -1.10065
C         19.50222        29.59788        -0.99307
C         20.77668        31.69163        -1.10699
C         19.55044        30.98119        -0.85754
C         20.81846        33.17850        -1.03159
C         19.59389        33.95636        -0.65015
C         20.76009        36.13005        -1.21292
C         19.54561        35.41814        -0.93627
C         20.76632        37.51905        -1.39768
C         19.55647        38.29559        -0.91047
C         20.69065        40.39926        -1.55957
C         19.49100        39.70859        -1.43935
C         20.66849        41.85338        -1.41694
C         19.39880        42.57296        -1.30053
C         20.61076        44.73290        -0.93524
C         19.36237        43.99768        -1.14683
C         20.61328        46.21590        -1.13016
C         19.31774        46.92533        -0.78560
C         20.65608        48.98019        -0.11127
C         19.36433        48.27662        -0.20912
C         20.73018        50.13487         0.78628
C         19.51100        50.81114         1.04429
C         20.80074        52.63202         2.11306
C         19.65662        52.15127         1.46561
C         20.70102        53.84511         2.97667
C         19.44906        54.64997         3.22608
C         20.87570        56.57787         3.96253
C         19.61628        55.90084         3.83203
C         20.93084        57.88675         4.53992
C         23.08430         4.46528         5.54139
C         21.85402         4.80663         4.93601
C         23.11542         7.41163         5.10101
C         21.41501         6.14711         4.83223
C         23.03647         8.54220         4.27074
C         21.78604         9.01512         3.72549
C         23.02462        11.03491         2.92866
C         21.80333        10.27038         3.04467
C         23.04606        12.21615         2.17262
C         21.85014        12.74235         1.58958
C         23.14983        14.46975         0.35679
C         21.85335        13.95829         0.85562
C         23.17292        15.73644        -0.45585
C         21.89242        16.53976        -0.54160
C         23.32985        18.74087        -1.17784
C         21.97160        18.03402        -0.77370
C         23.63510        20.03858        -0.43347
C         21.79539        21.08249        -0.12224
C         23.20747        23.09744        -0.14455
C         21.94342        22.39171        -0.45448
C         23.22811        24.56298        -0.45145
C         21.92770        25.28166        -0.38700
C         23.22603        27.52402        -0.24057
C         21.89120        26.77225        -0.10668
C         23.24222        28.93289        -0.75062
C         22.04690        29.59681        -0.99279
C         23.18151        31.66193        -1.81288
C         21.97347        31.00443        -1.28164
C         23.16002        33.15277        -2.06012
C         21.85171        33.93913        -1.85716
C         23.21510        36.11874        -1.92440
C         22.08068        35.36637        -1.25030
C         23.16826        37.49466        -2.08656
C         21.95133        38.25553        -1.76787
C         23.12987        40.47088        -2.20677
C         21.93213        39.66842        -1.79233
C         23.09096        41.92270        -1.84228
C         21.88184        42.53098        -1.34669
C         23.16423        44.72691        -1.22170
C         21.92856        43.96966        -1.02232
C         23.19422        46.18191        -1.08079
C         21.92944        46.94685        -1.04796
C         23.20857        48.76671         0.20968
C         21.97109        48.33540        -0.49084
C         23.19384        49.90690         0.99189
C         21.97105        50.66057         1.20960
C         23.27538        52.44163         2.35491
C         21.99796        51.88482         1.95830
C         23.31514        53.75055         3.06176
C         22.03288        54.46091         3.38750
C         23.33736        56.63660         3.51547
C         22.07149        55.90714         3.62473
C         23.38007        58.06197         4.17125
C         22.13932        58.54332         4.79947
C         23.48220        60.22804         5.96970
C         22.23844        59.67140         5.65378
C         24.19380         5.28625         5.74312
C         25.51458         7.26644         4.93220
C         24.30099         6.65266         5.30048
C         25.51611         8.56650         4.36041
C         24.27945         9.20024         4.00141
C         25.49256        11.21506         3.33828
C         24.27264        10.50584         3.43967
C         25.51619        12.62217         2.90990
C         24.26191        13.06554         2.18487
C         25.68505        14.77742         0.93773
C         24.41376        14.02522         1.05710
C         25.78694        15.76714        -0.17155
C         24.50321        16.38958        -0.68301
C         25.77689        18.32617        -1.45530
C         24.57596        17.83141        -1.04465
C         25.84913        20.57298        -1.30997
C         24.60439        20.97954        -0.68819
C         25.79854        23.14741        -0.25723
C         24.54148        22.36325        -0.14568
C         25.82451        24.53278        -0.25923
C         24.53557        25.28859        -0.41419
C         25.79763        27.51637        -0.47533
C         24.52092        26.77598        -0.20088
C         25.70850        28.88073        -1.04395
C         24.51237        29.55473        -1.09608
C         25.76983        31.66566        -1.81496
C         24.48460        30.90754        -1.73878
C         25.75151        33.11970        -1.95231
C         24.46574        33.87859        -2.10864
C         25.66960        36.01637        -2.01673
C         24.46605        35.36835        -2.00245
C         25.71580        37.47094        -2.24778
C         24.41889        38.22379        -2.43013
C         25.83538        40.35208        -2.23986
C         24.46491        39.73782        -2.43692
C         26.02593        41.74991        -2.42119
C         24.13098        42.77755        -2.15779
C         25.62939        44.74343        -1.47998
C         24.33259        44.10165        -1.61537
C         25.68071        46.05440        -0.93813
C         24.46844        46.78973        -0.66120
C         25.69320        48.62925         0.37678
C         24.44506        48.01665        -0.00447
C         25.71202        49.81251         1.15076
C         24.42579        50.29683         1.78343
C         25.73836        52.36712         2.55553
C         24.44836        51.76676         2.13404
C         25.84439        53.88898         2.46782
C         24.60499        54.49449         3.14624
C         25.84660        56.55015         3.73579
C         24.61193        55.92829         3.44540
C         25.86039        57.86478         4.31166
C         24.68628        58.53982         4.65764
C         24.68076        59.67138         5.51739
C         26.73054         9.22951         4.03076
C         27.96525        11.19638         3.16099
C         26.72454        10.53079         3.52755
C         28.07808        12.48327         2.74484
C         26.84776        13.40887         2.81736
C         27.93830        15.34542         1.59842
C         26.78131        14.49131         1.71982
C         28.19328        16.22222         0.56281
C         27.11123        16.47037        -0.41769
C         28.32075        18.73568        -0.92538
C         27.12768        17.80463        -1.12982
C         28.29414        20.24937        -0.90338
C         27.05051        20.99878        -0.79281
C         28.35553        23.10994        -0.28875
C         27.04314        22.35891        -0.20430
C         28.28426        24.55749        -0.52777
C         27.06113        25.24392        -0.45003
C         28.24239        27.40218        -1.16653
C         27.06100        26.72595        -0.58588
C         28.23774        28.75849        -1.42176
C         26.91799        29.44394        -1.76057
C         28.25431        31.61153        -1.96247
C         26.94901        30.95788        -1.73995
C         28.24211        33.12405        -2.09813
C         26.93750        33.81038        -2.02131
C         28.24810        35.99725        -1.84227
C         26.95172        35.28143        -2.11879
C         28.13858        37.41067        -1.35453
C         26.89434        38.17992        -1.65626
C         28.18750        40.33699        -1.50610
C         26.95349        39.65203        -1.77002
C         28.22410        41.76745        -1.48226
C         27.05350        42.49751        -1.85321
C         28.17782        44.70306        -1.34823
C         26.88870        43.90076        -1.26278
C         28.17147        46.09044        -0.85577
C         26.93350        46.71808        -0.64211
C         28.11193        48.77075         0.08682
C         26.91309        48.03994        -0.05044
C         28.10435        50.02387         0.71394
C         26.93410        50.45022         1.39781
C         28.35139        52.36190         2.40403
C         27.00747        51.63855         2.27755
C         28.25855        53.72829         3.01146
C         27.10056        54.47720         3.09651
C         27.06004        55.80671         3.58282
C         29.54657        12.92689         2.54354
C         30.72035        14.82860         1.23657
C         29.78090        14.33636         2.08035
C         30.70416        16.22321         0.76739
C         29.47891        16.88153         0.40605
C         30.75352        18.81417        -0.39139
C         29.53795        18.14339        -0.25591
C         30.78983        20.16489        -1.07074
C         29.50390        20.92686        -0.80252
C         30.75758        23.06766        -0.77193
C         29.56331        22.36044        -0.68236
C         30.73331        24.51252        -0.84158
C         29.49613        25.20399        -0.89137
C         30.79243        27.37439        -1.30426
C         29.46638        26.61139        -1.29627
C         30.71780        28.83299        -1.18056
C         29.48874        29.49287        -1.44810
C         30.69827        31.62213        -1.35895
C         29.50461        30.91049        -1.54898
C         30.73301        33.06885        -1.69182
C         29.48646        33.86025        -1.78049
C         30.73319        35.94716        -1.32117
C         29.49486        35.22104        -1.57926
C         30.71358        37.41076        -1.05429
C         29.40032        38.16164        -1.05944
C         30.60000        40.32270        -1.05330
C         29.39921        39.62996        -1.23326
C         30.60863        41.73694        -0.91884
C         29.42270        42.45305        -1.13212
C         30.57412        44.60104        -0.45439
C         29.46630        43.93428        -1.17287
C         30.58149        46.03273        -0.28756
C         29.41742        46.74935        -0.55741
C         30.60815        48.93408         0.00494
C         29.37974        48.26297        -0.55965
C         30.48338        50.36397         0.29429
C         29.27684        50.89129         0.65134
C         29.02115        52.35075         0.99531
C         31.92175        16.86182         0.50586
C         33.21376        18.86826        -0.17741
C         31.98115        18.18391        -0.01121
C         33.26285        20.26060        -0.48824
C         32.04213        20.94997        -0.75522
C         33.23099        23.07837        -0.55649
C         32.03153        22.35710        -0.74902
C         33.16449        24.53866        -0.21811
C         31.95817        25.23795        -0.79122
C         33.14684        27.36486        -0.51496
C         31.98562        26.63906        -0.86511
C         33.05308        28.81776        -0.31625
C         31.87207        29.55288        -0.82193
C         33.12441        31.67749        -0.61531
C         31.89217        30.96314        -0.91753
C         33.08275        33.15907        -0.64754
C         31.99799        33.82266        -1.42497
C         33.23521        35.99174        -1.30066
C         31.93158        35.28755        -1.26231
C         33.21563        37.53885        -1.43521
C         31.94656        38.18636        -1.18408
C         33.18333        40.43989        -0.89147
C         31.89909        39.63762        -1.12437
C         33.08245        41.84989        -0.43793
C         31.80877        42.43098        -0.47005
C         33.46991        44.86789         0.11334
C         31.58031        43.76275         0.01272
C         33.13975        46.15712        -0.20192
C         31.81858        46.74053         0.31403
C         31.75941        48.24837         0.19503
C         34.47827        20.99636        -0.43628
C         35.69660        23.18952        -0.44008
C         34.48391        22.40871        -0.48471
C         35.69136        24.59419        -0.44915
C         34.44589        25.29614        -0.42117
C         35.62376        27.47666        -0.26731
C         34.39775        26.70131        -0.37839
C         35.61414        28.84083        -0.06246
C         34.33198        29.57748        -0.02142
C         35.53941        31.74891         0.00296
C         34.30963        31.03746        -0.26877
C         35.51248        33.22079         0.14850
C         34.28726        33.97251        -0.27033
C         35.66560        36.04490        -0.72335
C         34.44072        35.35468        -0.79085
C         35.74626        37.51166        -0.95150
C         34.48684        38.29099        -1.19003
C         35.65509        40.38146        -0.39916
C         34.35914        39.59772        -0.40144
C         35.58058        41.77103        -0.32782
C         34.36527        42.55182        -0.27194
C         34.51879        43.95412        -0.25752
C         36.89925        25.38574        -0.55088
C         38.04268        27.58855        -0.74817
C         36.88126        26.76578        -0.47032
C         38.07979        28.94348        -0.52424
C         36.90916        29.56159         0.27908
C         37.92408        31.86338         0.44867
C         36.74802        31.08446         0.22646
C         38.06335        33.21024         0.12480
C         36.82302        33.99005         0.13521
C         38.10315        36.07513        -0.23802
C         36.84852        35.39778        -0.29025
C         38.11849        37.49866        -0.24547
C         36.93652        38.24246        -0.42708
C         36.87218        39.64918        -0.31843
C         39.24530        29.69650        -0.98660
C         40.65769        31.83291        -0.79131
C         39.69040        30.83477        -0.37193
C         40.51848        33.17118        -0.53592
C         39.31341        33.88835        -0.13516
C         39.30485        35.28685        -0.19844
O         27.13928        37.63100        -0.30512
O         16.24454        42.37606        -2.89742
O         25.80285        19.50796        -2.20038
O         33.17336        33.79197         0.68139
O         23.94965        27.29942         1.03698
O         36.06334        33.75037         1.38915
O         22.64283        46.83484        -2.32701
O         14.08124        43.74915        -2.27968
O         35.42186        38.11259        -2.27456
O         18.62555        53.02702         1.17954
O         18.83570        20.36006        -2.06122
O         19.80061        46.73251        -2.19542
O         21.26727        53.62817         4.32231
O         18.33455        32.39786         0.78909
O         23.93087        24.91020        -1.71157
O         21.97484         7.02380         5.79676
O         23.98771        13.40944        -0.20517
O         34.11430        39.22034         0.92879
O         17.32131        38.09171         0.08515
O         23.75053        33.47733        -3.35088
O         23.28285        57.87683         2.73960
O         20.19042        22.80878        -2.21683
O         15.41708        24.20222         0.59711
O         23.70369        30.92306        -2.97355
O         33.42060        29.19398         1.06789
O         17.61296        39.95103        -3.00747
O         10.93971        32.56108        -2.39295
O         39.06470        31.15275         0.85709
O         32.51069        44.20699         0.94718
O         26.69685        27.41630         0.69233
O         23.65562        40.21809        -3.55161
O         23.83374        22.67389         1.10311
O         28.10661        18.02286        -2.19873
O         21.31632        44.32506         0.29079
O         31.72705        33.34118        -2.76720
O         28.36688        32.25141        -3.27875
O         23.84735        15.59415        -1.73532
O         21.65723        17.11610        -1.86790
O         27.83228        22.60742         0.99312
O         16.33902        18.62045         1.21353
O         27.78875        35.81610        -3.21813
O         21.35796        49.29913        -1.39102
O         15.82383        36.40720        -2.65318
O         32.76142        40.21154        -2.24550
O         29.05659        44.48436        -2.48040
O         12.61709        41.09382        -2.34145
O         20.92063        27.87844        -2.22882
O         26.37637        51.54957         3.61245
O         12.48657        31.18530         0.55368
O         11.74283        37.73797         1.03344
O         25.93481        54.17021         1.10443
O         20.62363        33.61899         0.35603
O         20.53725        19.41715         0.92274
O         26.70898        15.33565        -1.23680
O         25.22345        37.78272        -3.58153
O         33.32864        36.67226        -2.59955
O         24.17464        53.66240         4.27543
O         30.20393        26.86933        -2.53925
O          7.20155        31.15591        -1.69363
O         28.87697        15.26645         2.64014
O         24.53504        13.52852         3.54910
O         22.77010        20.38435         0.61379
O         29.98825        37.74296         0.21109
O         25.04315        42.41843        -3.14066
O         12.44749        27.01575        -2.40785
O         26.99552        14.09559         4.07939
H         26.09480        14.36809         4.36779
O         31.72662        46.54577         1.75268
H         31.93356        45.59895         1.93892
O         19.84378        38.47001         0.52290
H         18.97633        38.58025         0.97651
O         37.18740        29.24282         1.67248
H         38.01150        29.72581         1.91095
O         13.82199        37.98472        -2.97852
H         14.31649        37.24996        -3.41488
O         29.20210        51.56267         3.25467
H         28.69288        51.36231         4.06941
O         28.13217        52.91912         0.05168
H         27.38430        53.45179         0.47393
O         30.21000        12.00348         1.67520
H         29.79132        12.04312         0.79097
O         26.70424        29.09970        -3.17205
H         27.26820        29.68509        -3.72227
O         29.33145        48.66871        -1.96516
H         28.51968        48.28774        -2.36199
O         16.39770        27.32671        -2.71209
H         15.74133        27.71324        -3.32842
O         21.24413        34.10178        -3.15259
H         21.97415        34.10667        -3.81696
O         32.94174        24.55687         1.25366
H         33.02488        25.48949         1.55021
O         13.21946        28.36274         0.51458
H         13.03605        29.17922         1.03770
O         24.31785        49.61716         3.08104
H         25.00377        50.02868         3.66112
O         21.46280        26.92144         1.27521
H         22.27203        26.86164         1.83603
O         23.15660        19.12591        -2.54649
H         22.87855        18.32334        -3.04297
O         14.50966        33.94928         1.19523
H         14.45926        33.02453         1.52095
O         13.36501        20.22549         1.63516
H         14.24626        19.83172         1.82395
O         17.24908        22.40289         1.19709
H         16.75453        23.16624         1.58113
O         16.62897        26.88641         0.90824
H         15.97125        26.19268         1.13742
O         14.60157        24.79397        -2.93554
H         13.89652        25.24649        -3.44529
O         26.81293        43.59778         0.18434
H         25.93625        43.20217         0.37648
O         30.82991        19.91295        -2.51475
H         30.07092        19.33067        -2.73931
O         22.59522        35.22783         0.09734
H         21.87855        34.83157         0.65479
H          4.81397        31.44810         0.59094
H          5.05020        33.78059         0.14625
H          7.55939        27.13868         0.62046
H          6.63904        29.27643         1.05125
H          6.15193        35.72683        -0.13270
H          7.35776        37.92005        -0.13313
H          9.85515        22.68242         0.31198
H          8.69610        24.88244         0.44812
H          8.74497        40.07284         0.23657
H          9.95151        42.13643         0.37634
H         12.23223        18.29320        -0.29651
H         11.00096        20.58086         0.23412
H         11.20485        44.20950         0.60399
H         12.45731        46.24656         0.99749
H         14.74203        14.00199         0.47273
H         13.50091        16.09825        -0.10350
H         13.70977        48.30147         1.42834
H         14.98027        50.27021         2.08616
H         17.24944        10.04051         2.14075
H         15.99236        11.99371         1.25456
H         16.22454        51.86545         3.23235
H         17.39478        54.44091         3.92237
H         19.86799         6.15371         3.32728
H         18.52902         8.11120         3.00061
H         18.71471        56.44715         4.14833
H         19.99672        58.32172         4.92614
H         23.24516         3.39167         5.73163
H         21.25512         4.00471         4.48029
H         23.51990        61.09908         6.63878
H         21.32255        60.09328         6.09137
H         25.12277         4.79673         6.07418
H         26.46855         6.74088         5.08406
H         26.82635        58.27919         4.63735
H         25.64004        60.08877         5.85490
H         27.68833         8.71698         4.20273
H         28.88163        10.58701         3.21541
H         29.17226        54.09600         3.50855
H         28.01147        56.32293         3.78897
H         30.04281        12.82383         3.54836
H         31.52138        14.17047         0.86912
H         31.39243        50.98544         0.31375
H         29.99409        52.92027         1.03084
H         32.86190        16.34155         0.74114
H         34.14968        18.34326         0.06637
H         33.78175        46.76043        -0.85912
H         32.64389        48.78657         0.57291
H         35.42538        20.45516        -0.29235
H         36.65984        22.65730        -0.43650
H         36.52668        42.33463        -0.26669
H         35.51974        44.35898        -0.47481
H         37.85485        24.86455        -0.71421
H         38.91864        27.09642        -1.19968
H         39.06421        38.02209        -0.03782
H         37.80707        40.20428        -0.13527
H         39.76688        29.32165        -1.88072
H         41.55592        31.49495        -1.33184
H         41.35243        33.82183        -0.84679
H         40.26259        35.81257        -0.33588
