         430
 CSIRO Nanostructure Databank - Neutral Graphene Oxide Data Set
C         27.87456        27.41240         0.02788
C         27.88283        28.81434         0.19751
C         26.65682        29.55361         0.16420
C         27.86727        31.66260         0.43482
C         26.65349        30.91576         0.27948
C         27.83508        33.08555         0.44392
C         26.65908        33.85149         0.25803
C         27.85074        36.01248         0.33950
C         26.66276        35.24047         0.27117
C         27.86258        37.42423         0.11195
C         26.65439        38.14539        -0.13856
C         27.89141        40.23079        -0.44714
C         26.66658        39.49332        -0.37501
C         27.89568        41.61921        -0.69719
C         26.69892        42.38153        -0.82748
C         27.95149        44.48976        -0.86025
C         26.71830        43.75121        -0.94811
C         27.94639        45.90646        -0.81879
C         30.28944        27.34735         0.30285
C         29.05928        26.69806         0.07051
C         30.33023        28.75660         0.45967
C         29.11358        29.49912         0.39646
C         30.34900        31.61235         0.62795
C         29.11451        30.93857         0.51808
C         30.37705        33.07368         0.77800
C         29.06792        33.83862         0.69811
C         30.31289        35.95771         0.34910
C         29.11220        35.30248         0.43556
C         30.35252        37.44831         0.56064
C         29.09652        38.14781         0.08266
C         30.39145        40.24032        -0.22355
C         29.12623        39.51325        -0.22122
C         30.41625        41.61945        -0.46244
C         29.19834        42.31077        -1.01330
C         30.38780        44.51251        -0.61093
C         29.17659        43.79825        -0.76244
C         30.37497        45.93633        -0.60646
C         29.13068        46.60865        -0.71253
C         32.83380        24.51465        -0.05213
C         31.62832        25.16299        -0.03620
C         32.84545        27.28704         0.61884
C         31.52319        26.53824         0.45947
C         32.79771        28.76143         0.61451
C         31.59965        29.45879         0.61531
C         32.80187        31.65538         0.64696
C         31.59944        30.91801         0.63986
C         32.81491        33.08350         0.42703
C         31.62236        33.78659         0.47098
C         32.85509        35.95491         0.13637
C         31.56208        35.20246        -0.03087
C         32.82554        37.36828         0.04662
C         31.63339        38.10425         0.11676
C         32.85254        40.24810        -0.00738
C         31.62893        39.52669        -0.03567
C         32.84507        41.68401        -0.05783
C         31.62591        42.36870        -0.33776
C         32.84371        44.51598        -0.28684
C         31.63283        43.79732        -0.43408
C         32.85118        45.95400        -0.36204
C         31.62649        46.66074        -0.51996
C         32.85963        48.76248        -0.55935
C         31.66459        48.07361        -0.60364
C         35.38579        23.07671        -0.48983
C         35.37773        24.38211         0.24842
C         34.08403        25.17476         0.17013
C         35.34628        27.28460         0.35684
C         34.11201        26.56761         0.34626
C         35.30106        28.78389         0.14921
C         34.08539        29.45795         0.74963
C         35.32700        31.68628         0.38214
C         34.09080        30.97077         0.76337
C         35.30031        33.05851         0.18716
C         34.07178        33.79838         0.22657
C         35.34539        35.94168         0.13556
C         34.06969        35.21658         0.12548
C         35.34971        37.35902         0.10602
C         34.10242        38.08777        -0.31902
C         35.29661        40.22167         0.25009
C         34.09935        39.54761         0.05280
C         35.27191        41.68806         0.60555
C         34.05062        42.40936         0.09799
C         35.31245        44.54105         0.03977
C         34.06994        43.81340        -0.04177
C         35.32635        45.95953        -0.08671
C         34.08488        46.67142        -0.27432
C         35.34760        48.81430        -0.36698
C         34.09437        48.08629        -0.40140
C         35.39548        50.21701        -0.54675
C         37.80549        23.23009        -0.84504
C         36.54870        22.53210        -0.92235
C         37.83696        24.57676        -0.44305
C         36.61344        25.20786        -0.04145
C         37.84309        27.30833         0.43482
C         36.56842        26.59222         0.19870
C         37.82606        28.81711         0.62877
C         36.56592        29.55104         0.44755
C         37.83037        31.66829         0.39605
C         36.56968        30.93287         0.38035
C         37.83000        33.05835         0.27307
C         36.57720        33.77451        -0.17598
C         37.80392        35.93542         0.26468
C         36.56242        35.24006         0.17561
C         37.80156        37.37551         0.32861
C         36.56133        38.07811         0.22541
C         37.76422        40.23765         0.37505
C         36.54597        39.52061         0.27366
C         37.76643        41.68602         0.31054
C         36.55545        42.40451         0.28182
C         37.78503        44.52867         0.08534
C         36.54940        43.82027         0.14854
C         37.79729        45.96021         0.05452
C         36.55422        46.67628        -0.02817
C         37.79323        48.83669        -0.08614
C         36.56964        48.11403        -0.15392
C         37.81406        50.23532        -0.24935
C         36.59189        50.90638        -0.50449
C         40.36522        20.50418        -1.50028
C         39.16074        21.10305        -1.32746
C         40.32330        23.37255        -1.36539
C         39.02329        22.56801        -1.36100
C         40.31618        24.73108        -0.79103
C         39.09518        25.33221        -0.43358
C         40.31191        27.40206         0.16437
C         39.10698        26.67525         0.04611
C         40.30741        28.82419         0.42081
C         39.09649        29.54142         0.49337
C         40.30552        31.67893         0.51308
C         39.07523        30.95854         0.47483
C         40.29310        33.09376         0.49240
C         39.05389        33.79393         0.34541
C         40.33172        35.95545         0.16983
C         39.02768        35.21828         0.30352
C         40.27117        37.41412         0.54565
C         39.02124        38.10111         0.45547
C         40.22956        40.25452         0.49072
C         38.99938        39.53313         0.46385
C         40.23652        41.67322         0.34451
C         39.00565        42.38691         0.23960
C         40.25052        44.51008         0.01741
C         39.01850        43.81149         0.11966
C         40.26005        45.94635        -0.01649
C         39.03121        46.65092         0.07459
C         40.32262        48.81820        -0.08326
C         39.05276        48.12951         0.34503
C         40.31222        50.23827        -0.20040
C         39.07875        50.96531        -0.19568
C         40.33011        53.05884        -0.16247
C         39.12232        52.37383        -0.19534
C         42.86196        20.56438        -1.71060
C         41.59830        21.26272        -1.58745
C         42.85725        23.43637        -1.52724
C         41.59042        22.63217        -1.41493
C         42.81229        24.74722        -0.78240
C         41.56507        25.39358        -0.54759
C         42.78656        27.43013         0.14607
C         41.55782        26.73995        -0.06729
C         42.78595        28.82893         0.46046
C         41.54829        29.53928         0.49851
C         42.77342        31.65659         0.78806
C         41.54270        30.95566         0.60561
C         42.77468        33.09481         0.89796
C         41.52741        33.82620         0.71293
C         42.68327        35.95823         1.28496
C         41.50338        35.20663         0.74090
C         42.72158        37.41730         0.89729
C         41.46106        38.11647         0.74317
C         42.67653        40.27397         0.68354
C         41.46354        39.56035         0.66953
C         42.70108        41.66794         0.42883
C         41.47254        42.37395         0.28165
C         42.72101        44.45713        -0.09146
C         41.48968        43.78719         0.06332
C         42.70910        45.88229        -0.56951
C         41.48906        46.64833        -0.14574
C         42.79165        48.74600        -0.30407
C         41.53021        48.07287        -0.17426
C         42.80011        50.21048        -0.43414
C         41.54082        50.95188        -0.30951
C         42.80518        53.05226         0.04496
C         41.55968        52.35942        -0.21037
C         44.05313        21.21735        -1.56910
C         45.29540        23.28115        -0.97011
C         44.11392        22.62905        -1.29725
C         45.28164        24.67117        -0.53056
C         44.02303        25.38324        -0.45055
C         45.25450        27.41718         0.26254
C         44.01975        26.73886         0.01012
C         45.26801        28.80403         0.60056
C         44.01168        29.52179         0.67296
C         45.22480        31.64025         1.20591
C         43.97950        30.92389         0.88490
C         45.25052        33.10168         1.03480
C         43.99218        33.80041         0.98553
C         45.17044        35.95172         1.03930
C         43.98896        35.24245         1.05645
C         45.18224        37.40292         1.03169
C         43.91714        38.09867         0.92575
C         45.19461        40.25585         0.63525
C         43.93788        39.59289         1.12074
C         45.18615        41.63115         0.31543
C         43.94683        42.36028         0.27836
C         45.19917        44.43982        -0.22092
C         43.94966        43.75124        -0.00714
C         45.19573        45.86911        -0.36685
C         44.01577        46.59772        -0.35108
C         45.27184        48.72948        -0.16697
C         44.02771        48.04322        -0.30941
C         45.27818        50.15574         0.34570
C         44.10429        50.97059        -0.18228
C         43.98153        52.39058         0.18388
C         47.73319        23.22486        -0.72498
C         46.58984        22.63878        -1.13143
C         47.70098        24.46453         0.12789
C         46.46135        25.29434        -0.12441
C         47.71864        27.37391         0.39306
C         46.48163        26.69402         0.19424
C         47.73889        28.77618         0.61681
C         46.51470        29.46473         0.76595
C         47.78944        31.66339         0.95701
C         46.54353        30.89218         1.14407
C         47.74189        33.08551         0.96169
C         46.47162        33.76852         0.95272
C         47.72151        35.99950         0.87789
C         46.44104        35.23451         0.79822
C         47.65257        37.42232         1.41257
C         46.37776        38.11860         1.01644
C         47.63453        40.17028         0.38062
C         46.40311        39.52901         0.69461
C         47.64082        41.56112         0.05087
C         46.41552        42.30273         0.03746
C         47.67757        44.40538        -0.34402
C         46.41983        43.71335        -0.20710
C         47.72522        45.81300        -0.44217
C         46.46858        46.58671        -0.74505
C         47.72713        48.70061        -0.21765
C         46.50248        48.03166        -0.29810
C         47.74468        50.12541        -0.03072
C         46.60488        50.83684         0.16079
C         50.25524        24.58274        -0.01094
C         48.97671        25.27324         0.09970
C         50.27712        27.31901         0.60519
C         48.95658        26.63163         0.30292
C         50.20903        28.82713         0.63829
C         49.01641        29.50340         0.70846
C         50.23868        31.69512         0.82482
C         49.00836        30.96509         0.82814
C         50.22053        33.12934         0.93065
C         48.97689        33.82737         0.95313
C         50.19116        35.96425         1.14203
C         48.99187        35.25410         1.02353
C         50.20047        37.46133         1.42522
C         48.91211        38.15946         1.04350
C         50.12864        40.03575         0.02282
C         48.87500        39.42000         0.51410
C         50.10939        41.49663        -0.36789
C         48.86290        42.25533        -0.20864
C         50.15727        44.34061        -0.53058
C         48.90088        43.65657        -0.33346
C         50.16936        45.76424        -0.59642
C         48.95851        46.48383        -0.46218
C         50.16263        48.58885        -0.98342
C         49.04660        47.96626        -0.18096
C         51.39616        25.26464        -0.24352
C         52.73837        27.40070        -0.08664
C         51.36320        26.77627        -0.36769
C         52.64599        28.90071         0.02450
C         51.53647        29.51762         0.83411
C         52.68290        31.74517         0.58602
C         51.48203        31.01901         0.70885
C         52.69686        33.16669         0.81538
C         51.44719        33.85748         1.02524
C         52.66865        36.01898         1.41036
C         51.42183        35.26837         1.18757
C         52.69543        37.47742         1.11565
C         51.45062        38.13508         0.91010
C         52.62871        40.14508         0.13329
C         51.42110        39.42859         0.38786
C         52.59207        41.48793        -0.33363
C         51.39312        42.21295        -0.43356
C         52.63476        44.33132        -0.80190
C         51.38250        43.62369        -0.58660
C         52.61235        45.77918        -0.95245
C         51.40620        46.47310        -0.86790
C         51.29757        47.89009        -1.19837
C         54.76553        27.78758        -1.52541
C         53.79362        26.97624        -1.09090
C         54.76851        29.26821        -1.23854
C         53.96535        29.60331         0.02393
C         55.06658        31.82235        -0.04819
C         53.90513        31.10285         0.19797
C         55.09695        33.24667         0.21307
C         53.91732        33.86275         0.74788
C         55.19489        36.04692         0.86996
C         54.00035        35.25961         1.18731
C         55.20418        37.49702         1.33385
C         53.90108        38.16303         0.91849
C         55.09774        40.26114         0.39652
C         53.89282        39.52411         0.47139
C         54.99174        41.77731         0.28116
C         53.89414        42.13643        -0.73018
C         55.09691        44.28010        -1.37868
C         53.81426        43.62983        -0.92786
C         55.04638        45.77853        -1.28172
C         53.88756        46.45298        -1.12887
C         56.13983        29.89320        -1.11474
C         56.24494        31.11795        -0.56098
C         56.21548        34.04280        -0.06777
C         56.23656        35.43104         0.21331
C         56.41847        38.27224         0.91371
C         56.34563        39.59353         0.58744
C         56.27429        42.52422        -0.00729
C         56.29972        43.69046        -0.66416
O         53.44745        35.52860         2.53983
O         45.88519        31.16512         2.43523
O         47.11146        35.77626        -0.42549
O         39.52067        23.20787        -2.59119
O         29.68458        33.54379         2.00869
O         43.69489        50.67077        -1.53416
O         37.84374        27.89615         1.78804
O         34.27177        30.15945         2.00048
O         32.13981        26.72282         1.78122
O         50.03151        40.42269        -1.39005
O         31.41863        35.04452        -1.50868
H         32.31412        34.88074        -1.87695
O         36.63627        33.74119        -1.65545
H         37.40285        34.29066        -1.92605
O         35.16533        41.72697         2.08419
H         35.12170        42.67141         2.34591
O         55.28342        43.95420        -2.79601
H         55.18243        42.97212        -2.85754
O         55.24883        37.48906         2.79672
H         54.54780        36.85714         3.09955
O         47.60134        37.26932         2.88007
H         47.32340        38.13179         3.25722
O         42.92813        23.82653        -2.95625
H         42.72673        23.02644        -3.48716
O         42.59701        45.78667        -2.05565
H         43.34572        45.23077        -2.36312
O         54.52445        42.23452         1.58267
H         55.13860        41.89098         2.26474
O         30.34632        37.61825         2.03184
H         29.58118        37.11340         2.38263
O         35.49771        24.02062         1.68612
H         35.47392        24.85891         2.19697
O         40.59824        35.99026        -1.30214
H         40.70143        35.05934        -1.59627
O         54.29379        41.52623        -2.00610
H         53.48727        41.43957        -2.55797
O         50.30248        37.57582         2.88375
H         49.44214        37.25329         3.25076
O         42.48333        35.97996         2.75325
H         43.32440        36.28178         3.15853
O         35.07987        28.93110        -1.30572
H         35.81374        28.47917        -1.77383
O         54.07871        29.92100        -2.34018
H         54.53412        29.67615        -3.17186
O         45.04696        50.08990         1.79959
H         45.80872        49.61528         2.19579
O         51.97134        29.25885         2.23419
H         51.69681        28.32101         2.42603
O         51.01064        27.12466        -1.72024
H         50.16490        26.67950        -1.93780
O         29.33964        42.18346        -2.48929
H         28.55974        42.62691        -2.88710
O         54.70499        29.08362         1.18822
H         54.17292        29.35262         1.97415
O         47.58975        23.99092         1.52164
H         46.74255        23.50167         1.59401
O         39.06025        48.23711         1.83500
H         38.23619        47.81056         2.15489
O         53.18054        26.85680         1.19724
H         54.01589        27.34149         1.41497
O         34.13139        38.06149        -1.80070
H         34.93644        38.54527        -2.08431
O         49.46880        48.06325         1.23148
H         50.34989        47.63666         1.29968
O         46.43033        46.64057        -2.22192
H         45.65401        47.18766        -2.47091
O         43.97509        39.75032         2.60254
H         43.10535        39.44885         2.94401
O         50.63545        26.92045         1.96383
H         50.87495        25.96800         1.94139
H         26.91866        26.89256        -0.12769
H         25.71232        29.00506         0.03763
H         25.69304        31.44668         0.24848
H         25.69339        33.34658         0.12009
H         25.69562        35.74799         0.15757
H         25.68941        37.62230        -0.12055
H         25.70981        40.00542        -0.54002
H         25.72302        41.87811        -0.78793
H         25.77508        44.30996        -1.02932
H         26.98900        46.44294        -0.88471
H         29.03090        25.60626        -0.04475
H         29.09192        47.70571        -0.70049
H         32.83983        23.45454        -0.34030
H         30.72780        24.63267        -0.37577
H         32.83434        49.85644        -0.64416
H         30.73592        48.64627        -0.72347
H         34.45647        22.50047        -0.59152
H         34.47429        50.78342        -0.73484
H         36.53135        21.54381        -1.40469
H         36.58089        51.99207        -0.66776
H         40.43856        19.40657        -1.49419
H         38.27122        20.48895        -1.12618
H         40.33720        54.15598        -0.09242
H         38.18987        52.95374        -0.17373
H         42.84453        19.47650        -1.86844
H         42.75150        54.12758         0.27236
H         44.98333        20.63178        -1.58637
H         44.86631        52.91860         0.56789
H         48.69356        22.72463        -0.91395
H         46.63981        21.68779        -1.68091
H         48.71197        50.64814        -0.05387
H         46.65891        51.92440         0.31335
H         50.27624        23.48595         0.06110
H         50.09593        49.64162        -1.29409
H         52.34590        24.72876        -0.38484
H         52.14311        48.37431        -1.70823
H         55.54088        27.39965        -2.20779
H         53.80968        25.91288        -1.37811
H         55.99118        46.32880        -1.40778
H         53.90594        47.55244        -1.10524
H         57.02273        29.37554        -1.52004
H         57.22603        31.61152        -0.50472
H         57.10767        33.59596        -0.52544
H         57.13436        36.00484        -0.05745
H         57.40341        37.80213         1.04703
H         57.27859        40.14999         0.41323
H         57.20290        42.15331         0.45646
H         57.25584        44.22354        -0.79078
