         429
 CSIRO Nanostructure Databank - Neutral Graphene Oxide Data Set
C          1.24295         1.96190        -0.51916
C          1.20396         3.36596        -0.51039
C          2.45268         1.29167        -0.56406
C          2.38423         4.12458        -0.55849
C          1.20625         6.33359        -0.65405
C          1.22322         7.75857        -0.71554
C          2.36551         5.58260        -0.50828
C          2.36003         8.49203        -0.45661
C          1.25647        10.72023        -0.93851
C          1.24701        12.08274        -0.96763
C          2.37941         9.95357        -0.44046
C          2.26284        12.89452        -0.29857
C          1.29800        15.07084        -1.08224
C          1.33893        16.44029        -1.21513
C          2.42368        14.34555        -0.59958
C          2.54191        17.14938        -0.95819
C          2.60072        18.56459        -1.07838
C          3.67491         2.01948        -0.61269
C          3.63971         3.45056        -0.61710
C          4.91776         1.34753        -0.63950
C          4.87107         4.18588        -0.72012
C          3.62527         6.28672        -0.41140
C          3.56190         7.71871         0.06989
C          4.82141         5.63973        -0.64109
C          4.85947         8.46556        -0.07939
C          3.52494        10.63850        -0.05198
C          3.54954        12.09679         0.15928
C          4.78086         9.91544         0.22108
C          4.78800        12.84857         0.20257
C          3.62408        15.01711        -0.33604
C          3.71131        16.42350        -0.57721
C          4.75907        14.33462         0.42478
C          4.95161        17.12609        -0.45976
C          3.78954        19.22924        -0.87719
C          4.98514        18.50832        -0.61588
C          6.13079         2.06112        -0.68989
C          6.08803         3.49707        -0.76832
C          7.37520         1.36242        -0.65089
C          7.40521         4.17369        -1.08461
C          6.07496         6.42533        -0.78890
C          6.04096         7.85511        -0.37609
C          7.40339         5.70132        -0.94019
C          7.31109         8.62237        -0.39603
C          6.03781        10.70477         0.27783
C          6.08559        12.16472        -0.08591
C          7.32413        10.00214         0.11765
C          7.29830        12.82797         0.54494
C          6.12541        14.96886         0.22016
C          6.24080        16.34207        -0.40213
C          7.28224        14.27827         0.51531
C          7.38871        17.15496         0.15031
C          6.27839        19.28903        -0.60549
C          7.44873        18.53069        -0.02427
C          8.62096         2.02423        -0.51011
C          8.54349         3.52829        -0.27881
C          9.82473         1.33854        -0.48577
C          9.88251         4.23708        -0.55540
C          8.63689         6.38376        -0.47386
C          8.63625         7.84672        -0.37563
C          9.78917         5.68088        -0.09572
C          9.77090         8.50182         0.27859
C          8.46260        10.67594         0.48608
C          8.44332        12.10415         0.79539
C          9.67046         9.87400         0.73470
C          9.68606        12.80059         1.34915
C          8.56603        14.96289         0.68607
C          8.51706        16.44482         0.73996
C          9.71554        14.28100         0.98429
C          9.85534        17.21708         0.86438
C          8.66010        19.25581         0.14382
C          9.87420        18.61228         0.40801
C         11.17571         2.02446        -0.47058
C         10.99385         3.43315         0.09035
C         12.27912         1.25197         0.22165
C         12.08180         4.10237         0.84488
C         10.91731         6.33999         0.44162
C         10.92732         7.76322         0.58771
C         12.06847         5.61023         1.11147
C         12.17643         8.46091         0.80631
C         10.99706        10.62125         1.07144
C         10.99496        12.08292         1.01439
C         12.22133         9.86098         0.82823
C         12.21870        12.72642         0.92280
C         11.00875        14.99581         1.17892
C         11.09399        16.43693         0.85084
C         12.29889        14.20209         1.10555
C         12.29952        17.05885         0.56699
C         11.13408        19.22423         0.21322
C         12.32850        18.49051         0.29563
C         13.39973         1.88457         0.73916
C         13.35564         3.33702         1.05077
C         14.66005         1.22421         0.84962
C         14.64336         4.09519         1.00778
C         13.37091         6.31367         0.79350
C         13.40895         7.69435         0.72342
C         14.59735         5.53045         0.60775
C         14.66597         8.41596         0.60464
C         13.44421        10.59280         0.68743
C         13.44332        11.98873         0.76785
C         14.68320         9.84085         0.55437
C         14.78172        12.69940         0.88254
C         13.55149        14.90303         0.72133
C         13.54320        16.30906         0.52217
C         14.74202        14.17592         0.55520
C         14.77165        16.98038         0.28597
C         13.57365        19.12696         0.06353
C         14.78242        18.42190         0.06563
C         15.91224         1.91550         0.81688
C         15.91976         3.37830         0.81353
C         17.12075         1.22541         0.66634
C         17.10325         4.10427         0.84113
C         15.91359         6.26191         0.52022
C         15.89257         7.72570         0.59082
C         17.15640         5.53870         0.83986
C         17.12641         8.41519         0.59239
C         15.89628        10.51814         0.36293
C         15.83356        11.98764         0.03105
C         17.12722         9.82368         0.40070
C         17.17661        12.67421         0.04364
C         15.96504        14.84268         0.28269
C         15.97854        16.25152         0.21867
C         17.20830        14.09475         0.04794
C         17.29357        16.99022         0.29739
C         16.00321        19.07590        -0.23817
C         17.23123        18.39798        -0.25283
C         18.36833         1.98331         0.28822
C         18.36423         3.34132         0.95467
C         19.69762         1.28548         0.44475
C         19.64590         4.10641         1.08664
C         18.35263         6.26079         0.97835
C         18.36536         7.71220         0.80451
C         19.60743         5.57820         1.08462
C         19.56072         8.42798         0.84088
C         18.37341        10.51123         0.20621
C         18.35260        11.90343        -0.08368
C         19.60734         9.80862         0.43428
C         19.60029        12.54417        -0.52123
C         18.40985        14.78594        -0.23131
C         18.47035        16.20179        -0.22227
C         19.57792        14.02936        -0.83865
C         19.63188        16.88939        -0.59293
C         18.42603        19.04006        -0.58815
C         19.66155        18.33217        -0.64649
C         20.87309         1.99537         0.48766
C         20.88951         3.43901         0.67829
C         22.16806         1.34641         0.29324
C         22.05258         4.18411         0.60507
C         20.82377         6.27402         1.12441
C         20.78825         7.76939         1.42582
C         22.04377         5.56834         0.99282
C         22.07010         8.48410         1.09547
C         20.85180        10.47823         0.32791
C         20.91299        11.82661        -0.24797
C         22.09140         9.83400         0.67362
C         22.15831        12.61058        -0.14312
C         20.90963        14.70141        -0.59791
C         20.87330        16.14489        -0.87560
C         22.12067        14.02790        -0.37979
C         22.17742        16.91194        -0.85327
C         20.88248        19.03243        -0.72173
C         22.13660        18.38078        -0.67558
C         23.30265         2.05306         0.07479
C         23.31391         3.56399         0.05628
C         24.57287         1.36172        -0.37409
C         24.58522         4.11563         0.68203
C         23.29310         6.24716         1.33581
C         23.30550         7.78116         1.39118
C         24.60282         5.53698         1.17491
C         24.59448         8.45880         1.19718
C         23.31451        10.56921         0.63395
C         23.35103        11.95100         0.26730
C         24.51702         9.95746         1.32050
C         24.58790        12.68675         0.30444
C         23.36863        14.77616        -0.28805
C         23.39870        16.17635        -0.47677
C         24.59295        14.08770        -0.00394
C         24.59539        16.91340        -0.33309
C         23.34440        19.05980        -0.53736
C         24.58772        18.36058        -0.44093
C         25.84920         2.16799        -0.20717
C         25.85433         3.52234         0.22917
C         27.05174         1.53964        -0.47648
C         27.05588         4.25389         0.36389
C         25.84772         6.31674         1.03728
C         25.79823         7.76050         1.11663
C         27.05123         5.66310         0.73284
C         27.05018         8.49053         1.11000
C         25.82368        10.63517         1.04370
C         25.82235        12.05029         0.71359
C         27.00348         9.93102         1.17114
C         27.02664        12.74019         0.67442
C         25.81679        14.81456        -0.01569
C         25.82646        16.21953        -0.14505
C         27.10816        14.04079        -0.07412
C         27.06598        16.96017        -0.10331
C         25.79472        19.05905        -0.42045
C         27.05379        18.39914        -0.27358
C         28.28575         2.24204        -0.37129
C         28.28684         3.62182         0.02289
C         29.49660         1.59657        -0.67291
C         29.51425         4.34856         0.06302
C         28.29313         6.40461         0.70644
C         28.27916         7.82014         0.96472
C         29.51166         5.74675         0.40198
C         29.53820         8.56601         0.99542
C         28.25637        10.64871         1.59378
C         28.25369        12.14527         1.24513
C         29.53022         9.93650         1.20316
C         29.55814        12.87082         1.06584
C         28.34197        14.86538         0.19122
C         28.28220        16.26869         0.04414
C         29.57822        14.22513         0.47357
C         29.55167        17.01894         0.15533
C         28.24036        19.13210        -0.35261
C         29.53606        18.51942        -0.10349
C         30.72042         2.29635        -0.62873
C         30.72764         3.69148        -0.27053
C         31.93070         1.64667        -0.95410
C         31.96394         4.40733        -0.26788
C         30.76014         6.46709         0.41411
C         30.78791         7.85054         0.75626
C         31.97705         5.79762         0.08686
C         32.03430         8.52059         0.81780
C         30.78771        10.69061         1.40255
C         30.83613        12.14243         1.15212
C         32.09439         9.92697         1.24146
C         32.04562        12.81921         1.01315
C         30.81281        14.88348         0.36501
C         30.79099        16.25621        -0.25337
C         32.05637        14.25075         0.66786
C         32.06108        17.03944        -0.09803
C         30.79670        19.13375        -0.51283
C         32.01667        18.45241        -0.41269
C         33.15269         2.34800        -0.97002
C         33.16702         3.75108        -0.63059
C         34.35593         1.69706        -1.30952
C         34.40381         4.46411        -0.65400
C         33.22091         6.49722         0.10661
C         33.24901         7.86961         0.48617
C         34.43648         5.82943        -0.25150
C         34.51057         8.57553         0.55194
C         33.32572        10.70234         1.01828
C         33.29162        12.09499         1.04586
C         34.54356         9.96451         0.83962
C         34.57470        12.85111         1.28673
C         33.26079        14.97470         0.53202
C         33.26506        16.35985         0.09679
C         34.55993        14.32480         0.83173
C         34.51030        17.06368        -0.18829
C         33.24281        19.14167        -0.62293
C         34.47171        18.47242        -0.54042
C         35.58324         2.40021        -1.40867
C         35.60448         3.82041        -1.08669
C         36.76018         1.71382        -1.72533
C         36.81671         4.53963        -1.08790
C         35.68498         6.52342        -0.18532
C         35.72191         7.88537         0.23710
C         36.88787         5.86528        -0.58321
C         36.98911         8.55592         0.34087
C         35.79618        10.67535         0.81107
C         35.79945        12.08064         0.86027
C         37.01251         9.93051         0.64883
C         36.98699        12.76698         0.31446
C         35.79213        15.00719         0.28457
C         35.72312        16.39120        -0.22945
C         36.96628        14.18321        -0.13401
C         36.97391        17.06301        -0.50815
C         35.68802        19.15756        -0.76821
C         36.93239        18.50197        -0.73512
C         37.99520         2.42425        -2.01227
C         38.02797         3.93217        -1.65701
C         39.28654         1.72369        -2.06367
C         39.33414         4.54346        -1.37752
C         38.16092         6.53809        -0.46370
C         38.20585         7.83061         0.06735
C         39.39408         5.85049        -0.83344
C         39.52384         8.44635         0.34803
C         38.28706        10.64955         0.84454
C         38.29934        12.12596         0.59606
C         39.58804         9.92782         0.73535
C         39.56881        12.83652         0.33274
C         38.28158        14.86983        -0.56263
C         38.18922        16.38434        -0.54952
C         39.48997        14.31611         0.21025
C         39.42404        17.12372        -0.81068
C         38.13301        19.22696        -0.89641
C         39.38706        18.59205        -0.85619
C         40.45479         2.40890        -2.00129
C         40.51328         3.82185        -1.68013
C         41.76213         4.46459        -1.52875
C         40.66361         6.48593        -0.71156
C         40.74707         7.84054        -0.19768
C         41.82893         5.77433        -1.08698
C         41.92097         8.57780        -0.15755
C         40.81369        10.69416         0.44283
C         40.77529        12.16213         0.38737
C         41.95213         9.96756         0.13335
C         42.00704        12.93114         0.28862
C         40.78235        15.08282         0.19463
C         40.81603        16.46698        -0.39690
C         42.02280        14.28380         0.20436
C         41.86030        17.39214        -0.01827
C         40.59278        19.32082        -0.81690
C         41.78609        18.73204        -0.36244
O         15.24009         5.73699        -0.69813
O         23.22828         6.94953         2.62337
O          2.50512        12.57336         1.09582
O         10.15214        10.05641         2.10878
O         20.27611        11.82587        -1.61029
O         31.53128        10.20647         2.57193
O         36.64608        13.13019        -1.11646
O          8.99120        16.97384         2.01626
O         37.86023         3.47826        -3.03509
O         39.70639         8.88376         1.74284
O         14.01938         3.74948         2.29094
O         11.74256        14.61968         2.41003
O         39.94142        15.02433         1.40684
O         29.66068        17.89330         1.28003
O         10.94433         3.44938         1.55304
O         38.26562        11.58992         1.97398
O         24.61664         4.38624         2.11036
O         35.48827        15.05450         1.72682
O         28.81117        12.92234         2.37338
O         18.98795         3.43599         2.25606
O          6.73039         6.28068        -2.11165
O         40.35518        16.52965        -1.76423
O          8.12559         8.50725        -1.60613
O         21.57601        16.50239        -2.12686
O          5.37360        10.34014         1.52822
O          7.63967         3.90180        -2.49962
H          7.10658         4.57202        -2.99161
O         34.65516        12.88760         2.75184
H         35.28027        13.61297         2.98538
O         19.34922        14.14053        -2.28050
H         19.90452        13.44171        -2.69864
O         11.85031         5.77447         2.54203
H         11.27502         5.03289         2.83410
O          9.57642        12.78309         2.79934
H         10.31173        13.34073         3.14642
O         20.62767         7.86818         2.88384
H         21.46546         7.51859         3.27466
O         24.70911         0.08556         0.26048
H         24.83022         0.23276         1.22096
O         23.40955         3.97744        -1.34739
H         22.61284         3.64507        -1.81282
O         15.35476        12.09056        -1.34618
H         16.03166        11.69432        -1.93440
O         27.24623        13.63038        -1.50663
H         27.22963        14.45255        -2.04305
O         24.27481        10.21792         2.76061
H         25.06401         9.90279         3.25318
O         10.17862         4.29293        -1.97350
H          9.31739         4.28986        -2.47233
O          8.21253         3.75709         1.10621
H          8.98318         3.47872         1.65329
O         18.24860         2.27863        -1.15716
H         18.04700         1.43683        -1.61776
O         30.62770        16.05511        -1.70964
H         31.40903        15.55611        -2.02938
O          3.35167         7.60834         1.52154
H          3.43920         8.50839         1.90409
O         17.54653        17.15100         1.74148
H         16.80972        17.68407         2.10952
O         15.20501        12.58390         2.26639
H         14.53521        13.02386         2.83115
O         28.20780        10.54972         3.05041
H         28.70281        11.33129         3.39796
O          6.58044        16.04007        -1.81777
H          6.55196        16.88644        -2.31358
O          4.42972        14.55855         1.84313
H          3.65560        13.97923         2.04135
O         38.55065        14.51296        -1.94095
H         37.88683        13.83244        -2.20736
O          6.30327        12.21195        -1.54109
H          6.44028        13.15245        -1.79004
O          6.10797        20.54161         0.06890
H          5.96899        20.35823         1.02060
O         11.63776         2.10080        -1.85326
H         11.15768         2.85824        -2.27865
H          0.30166         1.39628        -0.47796
H          0.22852         3.86745        -0.44902
H          2.48294         0.19280        -0.56044
H          0.24136         5.83114        -0.80830
H          0.28138         8.26307        -0.97503
H          0.43271        10.18356        -1.42913
H          0.46346        12.59279        -1.54648
H          0.35641        14.54112        -1.27973
H          0.44076        16.99509        -1.52112
H          1.68815        19.11818        -1.34194
H          4.93675         0.24820        -0.60173
H          3.84486        20.32331        -0.96413
H          7.35815         0.26254        -0.69750
H          6.52828        19.54601        -1.67563
H          9.81040         0.24600        -0.62891
H          8.66156        20.32370        -0.11879
H         12.34379         0.17707        -0.01207
H         11.17726        20.29096        -0.05223
H         14.67836         0.13032         0.72139
H         13.58443        20.20806        -0.14033
H         17.12267         0.12471         0.64076
H         15.97629        20.14200        -0.51137
H         19.73590         0.19304         0.30588
H         18.41800        20.11729        -0.81451
H         22.20000         0.24675         0.24290
H         20.85931        20.13240        -0.70010
H         24.45996         1.14919        -1.47566
H         23.35041        20.15924        -0.49602
H         27.05954         0.48028        -0.77077
H         25.78255        20.15527        -0.51443
H         29.48856         0.53714        -0.96798
H         28.20273        20.18973        -0.65391
H         31.91536         0.57900        -1.21779
H         30.79139        20.18373        -0.84253
H         34.33643         0.62250        -1.54376
H         33.22369        20.21613        -0.85701
H         36.75462         0.61415        -1.76058
H         35.65917        20.23757        -0.97608
H         39.28437         0.62847        -2.16739
H         38.08594        20.32003        -1.01306
H         41.41057         1.87146        -2.09181
H         42.68429         3.91602        -1.76771
H         42.81328         6.25139        -0.99227
H         42.86463         8.11950        -0.48360
H         42.90977        10.48353        -0.02063
H         42.96530        12.39421         0.28097
H         42.97929        14.80976         0.06538
H         42.68527        17.03212         0.61317
H         40.55467        20.41140        -0.95208
H         42.64340        19.38597        -0.14687
