         276
 CSIRO Nanostructure Databank - Neutral Graphene Oxide Data Set
C        -11.54790         0.81992         0.86231
C        -10.34344         1.48048         1.46854
C         -9.06308         0.64605         1.64891
C         -7.81022         1.52540         1.93036
C         -6.47239         0.79167         2.16250
C         -5.15745         1.59003         2.21735
C         -3.80902         0.88887         2.23423
C         -2.47919         1.63510         2.27795
C         -1.18491         0.86570         2.39839
C          0.13381         1.62320         2.30299
C          1.43664         0.81919         2.45296
C          2.76430         1.65583         2.45700
C          4.04315         0.81494         2.11941
C          5.26111         1.55300         1.65219
C          6.31590         0.91205         0.75933
C          7.67304         1.55093         1.05389
C          8.93525         0.80192         0.78010
C         10.15884         1.58227         0.29382
C         11.37740         0.73288         0.58863
C        -10.10028         2.71707         0.60929
C         -8.87725         3.18671         0.31427
C         -7.60295         2.40778         0.64743
C         -6.38342         3.35129         0.81582
C         -5.17106         2.98874         1.63958
C         -3.78967         3.46726         1.17432
C         -2.53874         3.15539         2.00956
C         -1.22107         3.71133         1.36734
C          0.08277         3.05329         1.81047
C          1.36960         3.70717         1.35911
C          2.67336         2.99692         1.60828
C          3.81242         3.35571         0.62804
C          5.14874         3.00800         1.25696
C          6.39454         3.72107         0.84366
C          7.71009         3.03544         1.06763
C          8.95838         3.76510         0.70502
C         10.15654         3.06442         0.64146
C         -8.73192         4.23179        -0.77285
C         -7.56588         5.16936        -0.55516
C         -6.30261         4.45049        -0.21117
C         -5.00113         5.12547        -0.42511
C         -3.74044         4.45272         0.05145
C         -2.47620         5.01016        -0.59251
C         -1.20968         4.66595         0.19717
C          0.07766         5.05838        -0.50528
C          1.34092         4.66982         0.18611
C          2.56190         5.53051         0.00554
C          3.86193         4.83215         0.21203
C          5.06187         5.33302        -0.55335
C          6.42104         4.69503        -0.31376
C          7.58745         5.66311        -0.17401
C          8.81544         5.14045         0.33783
C         -7.54232         6.44472        -0.99926
C         -6.32099         7.28789        -0.88049
C         -5.01962         6.62517        -0.54351
C         -3.71737         7.35040        -0.74904
C         -2.47142         6.52942        -0.78576
C         -1.26557         7.04421        -1.52443
C          0.02330         6.29664        -1.40530
C          1.33762         7.01047        -1.80799
C          2.47666         6.79224        -0.81158
C          3.73472         7.46421        -1.21940
C          5.01152         6.67939        -1.18710
C          6.31789         7.39551        -1.54390
C          7.46223         6.96166        -0.64287
C         -6.23485         8.57799        -1.60912
C         -5.07581         9.21949        -1.82081
C         -3.72373         8.79856        -1.27916
C         -2.63941         8.98588        -2.37336
C         -1.27870         8.46396        -1.97069
C         -0.11683         9.12500        -2.21123
C          1.20153         8.51635        -2.07314
C          2.34724         9.21484        -2.30396
C          3.69960         8.51907        -2.32535
C          4.90572         9.40403        -2.06246
C          6.07538         8.89149        -1.64310
C        -11.67212        -0.13342        -0.10686
C        -10.70678        -1.05929        -0.61582
C         -8.87453        -0.76921         1.19398
C         -7.53152        -1.44855         1.37755
C         -6.34930        -0.65907         1.87925
C         -5.01544        -1.24452         1.47484
C         -3.73200        -0.50881         1.67358
C         -2.35943        -1.21028         1.44509
C         -1.19874        -0.64940         2.26245
C          0.07766        -1.45227         2.28567
C          1.41575        -0.71109         2.43645
C          2.73056        -1.49519         2.21403
C          4.01973        -0.71385         2.02487
C          5.27331        -1.38943         1.44426
C          6.41157        -0.60179         0.84837
C          7.50864        -1.14142        -0.11041
C          8.86567        -0.62463         0.37210
C         10.10781        -1.26012        -0.24277
C         11.34287        -0.58820         0.33490
C         -9.64861        -1.70860         0.20957
C         -8.55208        -2.55789        -0.60130
C         -7.26188        -2.19661         0.10749
C         -6.08076        -3.06858         0.19946
C         -5.02838        -2.74752         1.25987
C         -3.67847        -3.28333         0.79465
C         -2.47977        -2.74230         1.51834
C         -1.25913        -3.59903         1.62533
C          0.07712        -2.94672         1.94431
C          1.35231        -3.71056         1.71689
C          2.69497        -2.98363         1.80187
C          3.92822        -3.63230         1.21824
C          5.22429        -2.86198         1.08604
C          6.34775        -3.42760         0.28318
C          7.48840        -2.66320        -0.36104
C          8.79595        -3.40652        -0.11688
C         10.01001        -2.75493        -0.04354
C         -8.73383        -4.12241        -0.62956
C         -7.42563        -4.85088        -1.01843
C         -6.21953        -4.47731        -0.22137
C         -4.99033        -5.29908        -0.15188
C         -3.67238        -4.64978         0.21126
C         -2.55056        -5.60555         0.51945
C         -1.27350        -5.05767         1.16174
C         -0.00654        -5.86459         1.02080
C          1.34524        -5.16938         1.21906
C          2.59777        -5.77584         0.64006
C          3.76065        -4.85214         0.32937
C          4.87995        -5.32694        -0.55721
C          6.21840        -4.61620        -0.63673
C          7.46621        -5.48004        -0.50583
C          8.68343        -4.82794        -0.17489
C         -7.32298        -5.89088        -1.88120
C         -6.02403        -6.60250        -2.12161
C         -4.88200        -6.36862        -1.17952
C         -3.79447        -7.37454        -0.97934
C         -2.61397        -6.97910        -0.10271
C         -1.38574        -7.92019        -0.16520
C         -0.03379        -7.24092         0.33091
C          1.24175        -7.84722        -0.17751
C          2.55925        -7.11784        -0.06910
C          3.70061        -7.59386        -0.90918
C          4.88815        -6.71168        -1.13063
C          6.18755        -7.45449        -1.31308
C          7.42056        -6.82435        -0.83320
C         -5.93637        -7.83174        -2.95906
C         -4.80570        -8.56587        -3.01738
C         -3.69311        -8.43416        -2.03181
C         -2.32920        -8.91087        -2.31946
C         -1.24647        -8.59096        -1.54716
C          0.03406        -9.20044        -1.86833
C          1.18708        -8.91639        -1.22062
C          2.44350        -9.71464        -1.48952
C          3.62020        -8.79135        -1.86173
C          4.94094        -9.54044        -1.76693
C          6.10017        -8.92787        -1.47670
O          2.23302         4.08507         2.44734
O         -6.15651         3.91260         2.17189
O          0.70925        -8.20871         1.12688
O         -6.15510        -1.98444        -0.79406
O         -5.97338        -5.41879         0.91119
O         -3.07869        -6.74200         1.25719
O          3.59150        -3.80252         2.60927
O         -4.43085        -0.50723         0.36890
O          2.27277        -5.94297         2.03597
O          4.80731         5.46128        -1.99128
O          5.49288        -6.74571        -2.44790
O         -5.80754         7.28332         0.50316
O          5.70005         4.07422         2.07505
O         -0.78885        -1.30271         3.46475
O         -2.19114        -3.40271         2.75588
O         -3.42123        -3.47489        -0.63185
O          6.48461        -1.08652         2.19947
O         -6.51760        -0.19780         3.23673
O          3.01832         7.91984        -0.03999
O          7.75104         2.28389         2.31119
O         -0.82287         6.12147        -2.56798
O         -9.39082        -0.48091         2.52027
O          6.33444        -3.63397         1.69396
O         -1.89955         1.31468         3.57968
O         -2.83247         7.23909         0.42937
O          5.15238         1.19638         3.02621
O          9.09230        -0.28345         1.75537
O         -5.57162         4.28554        -1.48258
O          1.41308         0.02727         3.67021
O          7.22098        -2.86038        -1.81014
O          3.60901        -7.99297         0.49445
O         -4.49919         1.25211         3.46463
O         -4.89125        -5.70984        -2.49256
O         -7.39376         1.53279        -0.42886
O         -0.79581        -5.90913         2.23534
O          3.36152         5.75534         1.19967
O          0.89776         3.98000        -1.03602
O          6.59039         3.90253        -1.58160
O          0.72757        -3.66535         3.03167
O         -3.69562         2.99268        -0.20204
O         -1.64154        -9.05463         0.57839
O          3.78311        -4.49686        -1.09173
O         -1.19193         5.16275         1.56057
O         -4.22669        -8.72365        -0.67649
O          1.76037         6.40946        -3.01361
O          3.65534        -1.29782         3.30518
O          6.25911        -3.97391        -1.95659
O          0.10085         2.75547         3.22395
O         -9.16455        -4.55012         0.65589
H         -8.48244        -4.32084         1.32850
O         -1.95438        -0.90530         0.08787
H         -2.76807        -0.92645        -0.47449
O         -8.47234        -2.12280        -1.96460
H         -7.57451        -1.73073        -2.10574
O          2.77565       -10.48938        -0.33936
H          2.85842        -9.87977         0.42991
O          7.79912         3.10903        -1.51678
H          8.37928         3.51398        -2.20805
O         -5.31957        -3.34954         2.51990
H         -5.46779        -4.31682         2.39095
O         10.03012         1.66194        -1.16727
H         10.22122         0.75909        -1.54373
O          2.88626         2.07174         3.80762
H          3.84111         2.15778         4.02798
O         -8.46817         3.45993        -1.95313
H         -7.88783         2.68997        -1.67050
O         -2.71055         3.80813         3.25993
H         -2.03219         3.45071         3.87837
O         10.11440        -1.00531        -1.68423
H          9.20463        -1.17848        -2.02333
O          3.39825        -8.32399        -3.20161
H          4.16601        -7.75088        -3.44149
O          3.85889         7.87173        -3.60064
H          3.09740         7.21989        -3.67150
O          7.38592        -0.49958        -1.40294
H          6.76463        -1.02456        -1.95996
O         -8.11016         2.34002         3.06436
H         -7.38248         3.00593         3.17286
O         -3.07439         8.22466        -3.50971
H         -2.29258         7.96037        -4.03796
O         -2.41445         4.41005        -1.89007
H         -2.83441         3.52321        -1.84837
O          3.57191         2.53476        -0.52856
H          4.26044         2.71202        -1.20665
O        -10.94019        -1.49426        -1.82439
H        -10.15913        -1.99578        -2.18758
O        -10.75588         1.91636         2.77535
H         -9.94993         2.24714         3.24275
O          6.75928         6.93929        -2.85071
H          6.14999         6.21034        -3.12069
O         -7.79389        -2.52383         2.32529
H         -7.89401        -2.09817         3.20857
O          5.89242         1.29035        -0.57237
H          6.68171         1.43712        -1.14681
O         -3.40745         9.69103        -0.19635
H         -3.11896         9.14417         0.56996
H         12.22859        -1.21252         0.52817
H         12.28825         1.20039         0.99177
H         11.07392         3.62180         0.38747
H          9.71851         5.76689         0.25878
H          8.32653         7.63976        -0.54910
H          6.93274         9.55738        -1.45722
H          4.80027        10.49418        -2.18142
H          2.29555        10.28762        -2.55223
H         -0.15407        10.16545        -2.57383
H         -2.56894        10.07802        -2.63985
H         -5.08673        10.16867        -2.37839
H         -7.17008         8.98663        -2.02240
H         -8.45542         6.91021        -1.40215
H         -9.68606         4.80148        -0.91716
H        -10.99383         3.25512         0.25531
H        -12.47957         1.35023         1.12101
H        -12.64858        -0.19632        -0.61639
H        -10.18348        -2.45477         0.85783
H         -9.53615        -4.38838        -1.36298
H         -8.20650        -6.24432        -2.43629
H         -6.77172        -8.05035        -3.64124
H         -4.73899        -9.39970        -3.73307
H         -2.17139        -9.49933        -3.23727
H          0.03706        -9.97084        -2.65613
H          2.26250       -10.42233        -2.33535
H          4.91933       -10.62972        -1.91723
H          7.03376        -9.50448        -1.39389
H          8.32733        -7.44054        -0.74470
H          9.59686        -5.43467        -0.08688
H         10.93218        -3.34823         0.05708
