         314
 CSIRO Nanostructure Databank - Neutral Graphene Oxide Data Set
C         30.73067        57.30546        -1.69546
C         30.74991        58.67191        -1.75208
C         29.58105        59.45554        -2.06348
C         30.73031        61.54473        -1.48835
C         29.59059        60.82927        -1.93638
C         33.40777        53.07544        -1.77953
C         33.32320        54.43128        -1.51089
C         32.15881        55.23341        -2.06805
C         33.13620        57.20041        -0.88082
C         31.85869        56.44810        -1.17321
C         33.18291        58.67206        -0.97044
C         31.99622        59.42488        -1.45993
C         33.10162        61.54788        -0.77593
C         31.92819        60.88501        -1.19533
C         35.80049        48.74715        -1.47381
C         35.71407        50.12841        -1.16727
C         34.59165        50.90989        -1.56315
C         35.56947        52.96919        -0.63001
C         34.51698        52.30163        -1.32105
C         35.55312        54.37203        -0.44509
C         34.38260        55.09380        -0.82326
C         35.50810        57.24054        -0.18003
C         34.30865        56.52078        -0.59713
C         35.50256        58.64253        -0.05081
C         34.18084        59.37710        -0.08612
C         35.47517        61.50798        -0.13217
C         34.27360        60.85595        -0.38763
C         37.95544        44.32603        -1.24102
C         38.07555        45.76613        -1.07163
C         36.99023        46.56993        -1.35889
C         37.93886        48.62129        -0.31942
C         36.89686        47.98022        -1.04843
C         37.90122        50.00135        -0.04562
C         36.78565        50.74977        -0.45418
C         37.87818        52.90524         0.44474
C         36.66712        52.16934        -0.07787
C         37.91346        54.37422         0.34759
C         36.73003        55.08178         0.01141
C         37.90941        57.23803         0.35454
C         36.71946        56.52347         0.06030
C         37.91716        58.65633         0.46443
C         36.68641        59.35232         0.23929
C         37.86722        61.48444         0.39936
C         36.66980        60.79944         0.21005
C         40.51447        40.11574        -0.76387
C         40.45127        41.52090        -0.67352
C         39.23059        42.11398        -1.06668
C         40.92824        44.54651        -0.59774
C         39.06031        43.50054        -1.32438
C         40.53370        45.78728        -0.00617
C         39.16776        46.33607        -0.20174
C         40.12865        48.44823         0.97014
C         39.02141        47.80630         0.24179
C         40.15760        49.90554         1.23452
C         39.13880        50.68947         0.45319
C         40.32820        52.90542         1.13138
C         39.18058        52.17739         0.53465
C         40.31421        54.31831         1.04035
C         39.13584        55.02301         0.60437
C         40.42158        57.22763         0.83228
C         39.17272        56.48191         0.42394
C         40.28392        58.65228         1.19225
C         39.10585        59.38959         0.86167
C         40.24216        61.66694         0.76263
C         39.08424        60.83990         0.75851
C         42.90261        35.88061        -1.03118
C         42.80809        37.19101        -0.57230
C         41.64782        37.98455        -0.75680
C         42.66178        39.86043         0.59680
C         41.60867        39.32735        -0.36936
C         42.66898        41.39222         0.69960
C         41.58853        42.21102         0.04156
C         42.83484        44.27624         0.86083
C         41.79326        43.68328         0.05028
C         42.76665        45.75707         1.04364
C         41.37270        46.32481         0.96809
C         42.81487        48.63712         2.28834
C         41.00740        47.56452         1.57340
C         42.71375        49.98380         1.95272
C         41.42123        50.67828         1.73716
C         42.66556        52.85488         1.83165
C         41.50236        52.16876         1.51737
C         42.63239        54.31411         1.98326
C         41.48082        55.06606         1.46136
C         42.75714        57.17222         1.73183
C         41.54670        56.45547         1.41309
C         42.71981        58.61156         1.75511
C         41.42155        59.20811         1.79790
C         42.76661        61.58421         1.01813
C         41.45350        61.28629         1.37047
C         45.30139        33.60131        -2.69839
C         44.14610        34.04338        -2.06371
C         45.39450        35.93169        -1.08799
C         44.15976        35.24722        -1.31625
C         45.32444        37.08678        -0.16528
C         43.99359        37.80618         0.05415
C         45.20519        39.97873         0.42989
C         44.01811        39.25827         0.32498
C         45.23901        41.37136         0.81063
C         43.95464        42.04344         1.25801
C         45.20454        44.24421         1.56175
C         43.98497        43.56556         1.16356
C         45.20339        45.59547         1.87359
C         43.98981        46.43672         1.64293
C         45.22136        48.54649         2.40101
C         43.97948        47.83647         2.14163
C         45.21485        50.05589         2.25658
C         43.98841        50.75465         1.69006
C         45.22106        52.92009         2.09631
C         43.91245        52.15442         2.32775
C         45.23085        54.30746         2.10309
C         43.95919        55.05995         2.19757
C         45.20678        57.23201         2.01901
C         43.97456        56.50762         1.95363
C         45.17351        58.68252         1.84731
C         43.91214        59.38428         1.73744
C         45.14727        61.44067         1.17371
C         43.91529        60.80387         1.39085
C         46.45044        34.39124        -2.66583
C         47.72049        36.38145        -2.08067
C         46.53584        35.56176        -1.87282
C         48.17948        37.33544        -1.19025
C         46.49462        37.93798         0.06483
C         47.72932        40.06390         0.19371
C         46.48198        39.30827         0.18344
C         47.70372        41.34985         0.73637
C         46.45746        42.00652         1.05559
C         47.74618        44.05750         1.94415
C         46.50985        43.52032         1.22179
C         47.77585        45.54802         2.17046
C         46.46347        46.29009         2.27780
C         47.72778        48.54495         2.05701
C         46.49781        47.77552         2.44992
C         47.74278        50.03329         2.31165
C         46.48946        50.78880         2.14326
C         47.71636        52.92394         1.99491
C         46.46916        52.18492         2.06820
C         47.68232        54.35316         2.03784
C         46.46261        55.06640         2.07571
C         47.68041        57.26722         2.30416
C         46.42517        56.51239         2.13878
C         47.66956        58.76201         2.00444
C         46.37798        59.39358         1.70576
C         47.59856        61.45113         1.11609
C         46.38227        60.77818         1.33862
C         48.99890        38.47264        -1.38700
C         50.00662        40.51902        -0.67369
C         48.92055        39.61779        -0.55353
C         50.12489        41.66935         0.11929
C         49.04720        41.91281         1.16107
C         50.30673        44.18032         1.59184
C         49.05230        43.35161         1.68733
C         50.21360        45.66270         1.69714
C         49.03926        46.31200         1.95529
C         50.27894        48.57101         1.69900
C         49.00115        47.80487         1.81732
C         50.25899        50.03036         1.65783
C         49.03941        50.78162         2.07637
C         50.16353        52.96072         1.62184
C         48.95497        52.24244         1.87076
C         50.20202        54.35968         1.71576
C         48.97666        55.05131         2.13676
C         50.20105        57.28294         1.75539
C         49.00986        56.57405         2.22899
C         50.12694        58.65907         1.37496
C         48.90635        59.39296         1.50972
C         50.00957        61.41281         0.66153
C         48.84133        60.75864         1.10697
C         51.29566        42.42201         0.09353
C         52.64138        44.34114         0.73573
C         51.46652        43.63386         0.82711
C         52.78538        45.68569         1.30176
C         51.49778        46.41074         1.66813
C         52.67722        48.56151         1.05177
C         51.45327        47.87946         1.50337
C         52.65752        50.06759         0.99017
C         51.39758        50.74282         1.36081
C         52.71899        52.96927         1.36455
C         51.38766        52.21491         1.28008
C         52.59624        54.31605         1.91268
C         51.44550        55.07897         1.83784
C         52.75378        57.26669         1.18260
C         51.50201        56.57337         1.81774
C         52.39392        58.46442         0.29082
C         51.25758        59.30799         0.79318
C         52.29501        61.33785        -0.19718
C         51.20561        60.69143         0.45054
C         53.98778        46.47332         0.96800
C         55.15511        48.61487         0.70992
C         53.98098        47.84497         0.99389
C         55.17785        50.00902         0.73134
C         53.97707        50.76451         1.19069
C         55.41572        52.97873         1.12787
C         54.04869        52.24406         1.40647
C         55.27472        54.41614         0.63221
C         54.37832        55.28447         1.26856
C         54.86475        57.09078        -0.21028
C         53.98282        56.53325         0.73911
C         54.80644        58.54482        -0.43984
C         53.57989        59.26685        -0.16517
C         54.45009        61.23064        -1.40158
C         53.47282        60.62788        -0.54117
C         56.28173        50.74134         0.25270
C         57.17347        52.76536        -0.70185
C         56.29070        52.15215         0.18414
C         57.08994        54.14746        -1.04240
C         56.07589        54.95711        -0.39889
C         56.80990        56.90401        -1.75684
C         55.93472        56.33190        -0.75556
C         56.69938        58.25735        -2.14793
C         55.82044        59.17425        -1.40728
C         56.27421        60.95694        -3.05628
C         55.49756        60.49683        -1.97364
C         57.90342        54.70327        -2.02720
C         58.55188        56.59738        -3.46597
C         57.76958        56.06719        -2.42259
C         58.39043        57.93058        -3.90224
C         57.44112        58.77153        -3.23619
C         58.03512        60.61141        -4.74952
C         57.25627        60.13478        -3.67030
C         59.15466        58.46807        -4.97705
C         58.97168        59.78471        -5.38257
O         47.72042        44.56424         3.28805
O         52.04123        52.77813         0.08097
O         33.12993        59.10593        -2.37318
O         52.51764        49.29774        -0.23534
O         41.30237        60.41191         2.47810
O         40.31068        50.31835         2.61921
O         56.03939        59.20639         0.03120
O         49.96745        43.46535         2.82410
O         49.21140        55.74399         3.42160
O         53.75900        54.85805         2.45790
O         41.51340        41.81444         1.49874
O         45.05313        49.45534         3.56645
O         52.51136        57.31683         2.59517
O         44.55957        36.90990         1.07429
O         46.49009        46.93147         3.62714
O         52.39394        45.89555         2.71406
O         39.66286        51.47842        -0.68922
O         47.69517        37.23980         0.13024
O         38.52721        46.67916         1.06864
O         46.73014        43.82905        -0.15254
O         41.67966        47.95355         2.72274
O         43.09860        54.70181         3.34040
O         54.12853        51.33363         2.54913
O         47.69997        58.24592         3.38830
O         36.88115        52.39478         1.38174
O         43.68500        46.49347         0.14735
O         48.58209        50.41460         3.43976
O         48.10039        48.21040         0.67958
O         40.17024        56.93026        -0.58347
O         40.25225        44.13304        -1.73381
O         31.39431        55.88119         0.08986
H         31.29859        56.61255         0.73547
O         43.77042        51.98978         3.75138
H         43.58225        52.88012         4.13052
O         51.89112        57.78270        -0.94216
H         51.60108        58.48368        -1.56507
O         32.47379        55.66124        -3.39613
H         33.16344        56.35608        -3.34491
O         49.42621        41.05150         2.27536
H         49.94464        41.61174         2.90249
O         42.25076        39.35683         1.89659
H         41.53019        39.94852         2.21066
O         44.17735        50.95943         0.27011
H         44.15845        50.09233        -0.18648
O         43.90574        41.80652         2.69696
H         42.97161        41.93095         2.97735
O         56.11508        53.03372         2.38502
H         55.81696        52.26125         2.91930
O         33.62205        59.26827         1.26617
H         34.24961        59.69991         1.88386
H         29.78728        56.77913        -1.91054
H         28.66187        58.93478        -2.36803
H         30.66437        62.63435        -1.35701
H         28.67477        61.39418        -2.16156
H         32.60438        52.57677        -2.34153
H         31.25019        54.58580        -2.13261
H         33.11465        62.64915        -0.77237
H         34.98995        48.27063        -2.04398
H         33.76457        50.41755        -2.09541
H         35.53739        62.59950        -0.26129
H         36.94875        43.88812        -1.16189
H         36.13651        46.12123        -1.88916
H         37.87252        62.57997         0.29822
H         39.68777        39.60681        -1.28571
H         38.36512        41.44301        -1.18744
H         40.19378        62.61533         0.20668
H         41.99223        35.38103        -1.39782
H         40.80377        37.56850        -1.32971
H         42.94596        62.43920         0.34911
H         45.28924        32.67415        -3.28762
H         43.20023        33.49630        -2.18404
H         45.15342        62.49578         0.86392
H         47.32902        34.09212        -3.25521
H         48.21317        36.29027        -3.06070
H         47.58093        62.51601         0.84319
H         49.73992        38.47617        -2.20166
H         50.82646        40.26574        -1.36437
H         49.96012        62.47442         0.37949
H         52.12520        42.09095        -0.55149
H         53.46178        43.95189         0.11362
H         52.19105        62.39135        -0.49226
H         54.92565        45.93158         0.77353
H         56.07619        48.07544         0.44286
H         54.25577        62.25213        -1.76135
H         57.09255        50.18934        -0.24842
H         57.87768        52.13301        -1.26524
H         56.10279        61.96971        -3.45073
H         58.65623        54.07551        -2.52662
H         59.28939        55.95210        -3.96620
H         57.90013        61.64744        -5.09192
H         59.89280        57.82946        -5.48283
H         59.56753        60.18484        -6.21494
