         234
 CSIRO Nanostructure Databank - Neutral Graphene Oxide Data Set
C          1.20311         2.04894        -0.69401
C          1.13491         3.42097        -0.31324
C          2.37465         1.34689        -0.65556
C          2.24749         4.14771         0.09289
C          1.07883         6.36815         0.01652
C          1.07962         7.77767         0.16263
C          2.22226         5.59061         0.17000
C          2.25808         8.52257         0.24885
C          1.13042        10.71765         0.41798
C          1.16202        12.09884         0.42823
C          2.31635         9.95691         0.29129
C          2.37692        12.80426         0.23734
C          1.26610        15.10327         0.53688
C          1.37347        16.45877         0.60476
C          2.31691        14.25640        -0.06667
C          2.51096        17.17559         0.09722
C          2.64352        18.55684         0.27125
C          3.55229         1.91638        -0.00310
C          3.49782         3.41583         0.40873
C          4.88000         1.34476        -0.23356
C          4.79800         4.11382         0.49543
C          3.46170         6.30375         0.57334
C          3.52191         7.75724         0.19765
C          4.75247         5.56134         0.78504
C          4.81720         8.50827         0.23729
C          3.58449        10.66569         0.24832
C          3.59087        12.11221         0.14421
C          4.79590         9.97519         0.29691
C          4.85270        12.81305        -0.11255
C          3.57590        14.92658        -0.55181
C          3.59238        16.42895        -0.56272
C          4.86285        14.19130        -0.46494
C          4.92129        17.12908        -0.74531
C          3.85331        19.22917         0.04270
C          5.02456        18.54461        -0.33806
C          6.02789         2.03171         0.02996
C          6.00860         3.45188         0.36000
C          7.32288         1.25156        -0.02217
C          7.28086         4.19061         0.36971
C          6.05765         6.31142         0.85118
C          6.07183         7.81826         0.66421
C          7.30825         5.59122         0.57204
C          7.33692         8.49084         0.36359
C          6.11017        10.68761         0.49728
C          6.07991        12.11406        -0.00840
C          7.27707         9.91100        -0.14067
C          7.30870        12.75516        -0.28243
C          6.09733        14.86738        -0.68616
C          6.15378        16.31615        -0.83641
C          7.31076        14.12698        -0.61831
C          7.35456        16.99636        -0.96634
C          6.28451        19.15807        -0.38821
C          7.44030        18.43310        -0.75897
C          8.57182         2.09242        -0.02690
C          8.49693         3.49986         0.10503
C          9.79615         1.41814        -0.06564
C          9.74218         4.27608        -0.01376
C          8.53518         6.34608         0.58325
C          8.52659         7.81399         0.54680
C          9.74701         5.68119         0.38735
C          9.77008         8.55640         0.51750
C          8.58803        10.65487         0.00431
C          8.58188        12.02961        -0.18803
C          9.80675         9.93069         0.25187
C          9.84158        12.75455        -0.24397
C          8.58137        14.75056        -1.03624
C          8.57346        16.25184        -1.32027
C          9.86185        14.11324        -0.68112
C          9.87537        16.98639        -1.43821
C          8.68993        19.08729        -0.81222
C          9.90087        18.42183        -1.08935
C         11.04717         2.07189         0.05027
C         11.07899         3.54364        -0.02107
C         12.25777         1.37875         0.10901
C         12.30446         4.27122         0.36486
C         11.01842         6.33928         0.72105
C         10.99008         7.84233         0.92679
C         12.31695         5.63096         0.56415
C         12.28280         8.59290         0.98797
C         11.06568        10.67461         0.33574
C         11.04256        12.07964         0.07617
C         12.26444        10.02188         0.65888
C         12.27270        12.91256         0.34510
C         11.11392        14.79768        -0.86248
C         11.17843        16.21183        -1.35196
C         12.29297        14.16462        -0.49132
C         12.44135        16.98607        -1.19905
C         11.13025        19.07288        -0.97564
C         12.39382        18.42207        -1.08567
C         13.50365         2.05410         0.19460
C         13.54670         3.47844         0.68854
C         14.68961         1.40245        -0.08097
C         14.81209         4.23545         0.34639
C         13.58940         6.34503         0.68089
C         13.59929         7.82025         0.89644
C         14.79108         5.67382         0.48622
C         14.80166         8.60132         0.52954
C         13.53832        10.76668         0.99444
C         13.57827        12.14891         0.37686
C         14.79289         9.96894         0.64112
C         14.78203        12.77410         0.23122
C         13.57842        14.77613        -0.84449
C         13.62878        16.22357        -1.11128
C         14.88558        14.09788        -0.43568
C         14.91775        16.73647        -1.35682
C         13.53943        19.22838        -0.78259
C         14.85575        18.87032        -1.09005
C         15.93157         2.10715        -0.16525
C         15.97092         3.54365         0.06029
C         17.06978         1.43536        -0.58460
C         17.28268         4.23315        -0.06117
C         16.10253         6.44236         0.65111
C         16.01862         7.84200         0.03289
C         17.37967         5.71902         0.14794
C         17.33823         8.53094         0.35338
C         16.03504        10.71774         0.61173
C         16.02975        12.09128         0.55449
C         17.32006         9.98953         0.70912
C         17.23915        12.90002         0.85614
C         16.10335        14.91044        -0.29363
C         16.11964        16.19704        -0.81465
C         17.28505        14.33822         0.39241
C         17.35441        17.05503        -0.80784
C         16.06143        19.29243        -0.51227
C         17.27988        18.54522        -0.60394
C         18.27622         2.12207        -0.91730
C         18.37578         3.52143        -0.75328
C         19.36820         1.37910        -1.44972
C         19.54292         4.23168        -1.13212
C         18.55767         6.49038        -0.42126
C         18.57344         7.87590        -0.19749
C         19.64708         5.67798        -1.01082
C         19.77405         8.70453        -0.06684
C         18.58051        10.81655         0.50324
C         18.51234        12.15524         1.28579
C         19.77129         9.90559         0.70710
C         19.76998        13.02522         1.15387
C         18.59364        14.99284         0.20337
C         18.63534        16.36875        -0.34954
C         19.76754        14.35816         0.64336
C         19.80041        17.20060         0.02123
C         18.45377        19.23656        -0.32122
C         19.71937        18.61285        -0.09214
C         20.50677         2.03774        -1.83005
C         20.60672         3.45391        -1.70879
C         21.77543         4.07557        -2.20390
C         20.82582         6.21202        -1.58117
C         21.04119         8.25758        -0.49664
C         21.86408         5.44609        -2.15736
C         22.23284         8.65839         0.10466
C         20.95211        10.25003         1.38316
C         20.95220        12.53550         1.78769
C         22.16336         9.57705         1.15936
C         22.09983        13.27180         1.98230
C         21.05823        15.10998         0.56660
C         21.01328        16.58970         0.38020
C         22.26344        14.53225         1.27689
C         22.16078        17.38753         0.53583
C         20.87855        19.39540         0.11984
C         22.09044        18.77879         0.39964
O          3.99219        16.94853        -1.87244
O          8.43340        15.29024        -2.39959
O         21.06714         7.57249        -1.72050
O         16.96188        13.98262         1.81618
O         20.94143        11.25626         2.36343
O         10.84809         6.95676         2.06865
O          4.29086         7.96249        -1.04472
O         18.31252        16.55767        -1.79100
O         17.42019         8.97384         1.74563
O         10.49367         4.04832        -1.27682
O         15.01767        17.89742        -2.10854
O          6.08872         7.21795         1.99883
O          3.32983         2.34521         1.37958
O         10.57911        16.57373        -2.64452
O         13.05608         8.26440         2.19718
O         14.38002        14.00793        -1.82035
O          2.57973        14.43795        -1.51149
O         22.13087        14.44504        -0.17586
O         17.80993         4.80083         1.21717
O          3.88257         5.92710         1.92048
O         13.51343        10.96493         2.44805
H         13.45706        10.05842         2.84263
O          7.33212         0.35455        -1.14448
H          7.44976         0.88517        -1.95886
O         12.12098        13.37392         1.74894
H         12.42558        12.62705         2.32218
O         13.54135         3.36127         2.15711
H         13.62004         4.26745         2.52714
O         18.60812        11.22613        -0.89442
H         18.97353        10.49551        -1.43713
O         15.90099         7.66892        -1.40061
H         15.78059         8.54836        -1.81606
O          6.97221         9.84162        -1.56306
H          7.73018         9.42853        -2.02599
O         16.23634         6.62737         2.07083
H         16.77958         5.87938         2.41199
O          6.38556        10.73241         1.92792
H          5.62487        11.15639         2.37671
O         18.34134        11.82654         2.67290
H         17.95532        12.61354         3.11567
H          0.30597         1.59022        -1.13334
H          0.18349         3.94289        -0.48571
H          2.45391         0.35364        -1.12059
H          0.11282         5.88372        -0.18319
H          0.10701         8.28755         0.13194
H          0.16044        10.20982         0.50038
H          0.21829        12.65532         0.50332
H          0.39958        14.61155         1.00136
H          0.57604        17.04118         1.09042
H          1.79242        19.12125         0.68041
H          4.95270         0.31142        -0.60675
H          3.91480        20.30700         0.25131
H          7.35083         0.59717         0.89352
H          6.37961        20.22582        -0.14102
H          9.78242         0.31916        -0.11224
H          8.72563        20.16350        -0.58604
H         12.25481         0.28430        -0.00958
H         11.12808        20.14685        -0.73639
H         14.67412         0.33900        -0.36413
H         13.36578        20.16413        -0.23033
H         17.02303         0.34885        -0.74919
H         16.08553        20.24252         0.04280
H         19.27872         0.28905        -1.55380
H         18.40336        20.33224        -0.23120
H         21.35852         1.48793        -2.25516
H         22.57571         3.46580        -2.64496
H         22.73346         5.97673        -2.56593
H         23.19488         8.26428        -0.24575
H         23.06635         9.88171         1.70307
H         22.90617        12.88129         2.61612
H         23.07734        15.20332         1.61923
H         23.13490        16.92688         0.74375
H         20.81396        20.48937         0.03601
H         22.99984        19.38198         0.52690
