         430
 CSIRO Nanostructure Databank - Neutral Graphene Oxide Data Set
C         28.06527        27.80728        -0.55053
C         28.07782        29.19092        -0.92272
C         26.89812        29.97302        -0.88151
C         28.12954        31.91851        -1.66618
C         26.92741        31.30332        -1.28374
C         28.15881        33.31588        -2.25763
C         26.88888        34.07831        -2.04390
C         28.07315        36.05316        -1.21025
C         26.87098        35.34756        -1.57219
C         28.03748        37.42609        -0.82838
C         26.81018        38.13380        -0.68373
C         27.99402        40.20591        -0.18407
C         26.79290        39.47699        -0.38221
C         27.96893        41.65243         0.03040
C         26.77807        42.39349        -0.20818
C         27.94432        44.46949         0.24224
C         26.75644        43.76388        -0.07206
C         27.94674        45.89124         0.33445
C         30.47920        27.60768        -0.89072
C         29.23710        27.06601        -0.50645
C         30.51230        28.96133        -1.55545
C         29.30095        29.80823        -1.28088
C         30.63181        31.84863        -1.68816
C         29.35103        31.19168        -1.57204
C         30.69277        33.33274        -1.99430
C         29.38254        34.04080        -1.75987
C         30.54667        36.07483        -0.96162
C         29.33018        35.35940        -1.30298
C         30.50604        37.43425        -0.67301
C         29.26026        38.13716        -0.59889
C         30.45864        40.19663         0.14204
C         29.22641        39.52217        -0.25848
C         30.35551        41.54640         0.83643
C         29.14234        42.33071         0.39650
C         30.37917        44.47423         0.67042
C         29.15501        43.74846         0.45721
C         30.36031        45.88815         0.70528
C         29.11253        46.57380         0.56874
C         32.88408        24.73543        -0.70524
C         31.70919        25.45541        -0.64200
C         32.94823        27.52447        -1.07798
C         31.69693        26.85870        -0.86295
C         32.98442        28.97728        -1.21863
C         31.81240        29.69874        -1.36783
C         33.08427        31.82673        -1.35926
C         31.82546        31.13607        -1.49245
C         33.08389        33.27758        -1.24445
C         31.87029        33.99907        -1.33379
C         32.98860        35.98244        -0.45898
C         31.81775        35.35072        -0.94125
C         32.87377        37.35133         0.17222
C         31.81053        38.19604        -0.54272
C         32.83335        40.13857         0.86704
C         31.65399        39.54788         0.11779
C         32.86194        41.64784         0.78067
C         31.64862        42.33452         0.74004
C         32.84681        44.48268         0.86416
C         31.62751        43.76194         0.76064
C         32.83390        45.91769         0.90156
C         31.59875        46.61905         0.83636
C         32.80280        48.73708         0.95165
C         31.61981        48.03938         0.87661
C         35.37063        23.22608        -1.09582
C         35.36261        24.62763        -0.99648
C         34.12311        25.37947        -0.95200
C         35.44724        27.47970        -1.41149
C         34.14446        26.78976        -1.08349
C         35.45638        28.94454        -1.05038
C         34.26014        29.66272        -1.13165
C         35.53854        31.77289        -1.00785
C         34.27264        31.10229        -1.14559
C         35.59179        33.27264        -1.21694
C         34.27927        33.96277        -0.94671
C         35.45665        36.01056        -0.17118
C         34.23101        35.31361        -0.52906
C         35.42225        37.40361         0.15636
C         34.18007        38.10689         0.26276
C         35.36442        40.21190         0.69259
C         34.15248        39.47208         0.54373
C         35.34522        41.63670         0.86353
C         34.09704        42.35033         0.85374
C         35.31235        44.49602         1.08526
C         34.09259        43.77851         0.93116
C         35.30953        45.93692         1.11534
C         34.06358        46.64251         0.99421
C         35.29632        48.78984         1.04571
C         34.05495        48.06444         1.00235
C         35.33243        50.21285         0.99846
C         37.77596        23.13487        -0.68854
C         36.55130        22.50043        -0.98127
C         37.80617        24.56566        -0.63704
C         36.61343        25.31743        -0.86048
C         37.86661        27.44073        -0.72349
C         36.66201        26.73766        -0.92118
C         37.91066        28.87583        -0.76403
C         36.71565        29.61579        -0.88861
C         38.03687        31.80035        -0.93391
C         36.71424        31.05972        -0.86679
C         37.93516        33.20056        -0.38275
C         36.75411        33.90983        -0.50048
C         37.88949        35.98212         0.19276
C         36.68181        35.30208        -0.14486
C         37.87598        37.39790         0.40252
C         36.63320        38.10621         0.40572
C         37.82291        40.22135         0.89903
C         36.61269        39.51710         0.66410
C         37.81257        41.64745         1.05008
C         36.56332        42.35280         0.99387
C         37.77660        44.48076         1.28395
C         36.55863        43.78230         1.13774
C         37.77020        45.93997         1.65731
C         36.51469        46.65952         1.24080
C         37.77161        48.80188         1.14853
C         36.52666        48.08050         1.15539
C         37.77783        50.21896         1.02636
C         36.52040        50.89948         0.99231
C         40.18133        20.23156        -0.05247
C         39.00608        20.96536        -0.35804
C         40.13268        23.09466         0.11886
C         38.95806        22.35510        -0.35865
C         40.22029        24.55499        -0.10838
C         39.02486        25.28516        -0.38357
C         40.27601        27.38994        -0.07899
C         39.06380        26.69979        -0.42903
C         40.36708        28.80580        -0.06432
C         39.26304        29.56528        -0.76996
C         40.34224        31.65288         0.09239
C         39.20442        31.01539        -0.38170
C         40.32810        33.10118         0.25204
C         39.12948        33.83904         0.07881
C         40.31989        35.94365         0.55725
C         39.10583        35.25326         0.29011
C         40.31839        37.37058         0.65983
C         39.09087        38.09266         0.60590
C         40.27621        40.19934         1.05868
C         39.08668        39.51990         0.85654
C         40.28410        41.61432         1.54783
C         39.02284        42.36394         1.20358
C         40.24925        44.51474         1.22362
C         39.01934        43.78489         1.25966
C         40.25593        45.93468         1.20489
C         39.04278        46.67033         1.31489
C         40.23615        48.82447         1.12232
C         39.02111        48.08681         1.18474
C         40.25336        50.24067         0.98530
C         39.01181        50.93945         0.90989
C         40.16148        53.06656         0.48615
C         39.01982        52.35263         0.59586
C         42.61718        20.16093         0.49605
C         41.38063        20.85279         0.26907
C         42.69569        23.00227         0.44087
C         41.39956        22.31152         0.44095
C         42.72782        24.46377         0.03679
C         41.41738        25.21422         0.13415
C         42.55499        27.30287         0.85774
C         41.42506        26.63851         0.27549
C         42.67110        28.70874         0.89159
C         41.53921        29.46232         0.39778
C         42.73922        31.62070         0.74143
C         41.55230        30.91596         0.42687
C         42.74568        33.05696         0.71997
C         41.53284        33.78555         0.55607
C         42.74539        35.91499         0.91534
C         41.53344        35.21565         0.66689
C         42.73460        37.34574         0.99645
C         41.54088        38.05798         0.84558
C         42.81416        40.21790         1.31666
C         41.58600        39.55168         0.72727
C         42.77022        41.67405         1.27746
C         41.57388        42.33937         1.23989
C         42.77977        44.54600         1.00353
C         41.49615        43.77906         0.80609
C         42.74237        45.97442         0.93988
C         41.50443        46.64329         1.08362
C         42.81711        48.86318         0.88118
C         41.49536        48.09118         1.23811
C         42.69430        50.27959         0.51479
C         41.48963        50.95098         0.75055
C         42.58623        53.03736        -0.10165
C         41.50233        52.46092         0.77157
C         43.77313        20.83994         0.77878
C         45.13682        22.98079         0.85555
C         43.85736        22.28603         0.70417
C         45.12034        24.45885         0.76327
C         43.79698        25.14004         0.82763
C         45.45496        27.41452         1.57460
C         43.56281        26.37065         1.34824
C         45.28183        28.84382         1.37362
C         43.88744        29.47573         1.51512
C         45.16087        31.65500         1.15680
C         43.96391        30.93939         1.08480
C         45.19727        33.08296         1.02032
C         43.96296        33.76960         0.90243
C         45.18020        35.87023         1.30745
C         43.96462        35.18817         1.00641
C         45.01314        37.22858         1.71088
C         43.94084        38.03966         1.36863
C         45.29134        40.21031         1.11442
C         43.99684        39.50194         1.43752
C         45.26141        41.70002         0.86375
C         44.07084        42.43412         1.45108
C         45.21067        44.59489         0.76511
C         44.00098        43.88575         1.04101
C         45.16046        45.93996         0.41789
C         43.95635        46.68341         0.62476
C         45.08783        48.77627        -0.12818
C         43.95517        48.08426         0.42410
C         45.02319        50.20315        -0.34078
C         43.83189        50.93077        -0.07144
C         43.68530        52.32576        -0.43861
C         47.59418        23.07372         1.09495
C         46.36590        22.36125         1.01088
C         47.68428        24.46177         0.99377
C         46.42030        25.21696         0.80981
C         47.64083        27.46776         0.51472
C         46.46785        26.68073         1.05449
C         47.74312        28.76524         1.37324
C         46.44205        29.54134         1.28468
C         47.68701        31.69913         0.97575
C         46.46796        31.01072         1.55277
C         47.65869        33.05358         0.79423
C         46.43446        33.81478         1.02421
C         47.77513        35.96392         1.14734
C         46.45093        35.22200         1.19750
C         47.88452        37.47023         1.03889
C         46.88652        38.30122         1.56991
C         47.75315        40.29883         0.57829
C         46.64372        39.60693         1.12436
C         47.72501        41.73899         0.46707
C         46.54429        42.42671         0.75243
C         47.78541        44.61695         0.32635
C         46.52016        43.88423         0.81649
C         47.63529        45.96815        -0.23072
C         46.26187        46.56119        -0.40163
C         47.40573        48.71679        -0.97367
C         46.26163        48.06419        -0.44254
C         47.33713        50.13538        -1.14793
C         46.19662        50.84058        -0.85306
C         50.15399        24.59693         1.27345
C         48.92191        25.19714         0.95544
C         50.23415        27.37455         0.68350
C         48.93233        26.63548         0.56478
C         50.25798        28.83542         1.11348
C         48.95521        29.57728         0.99862
C         50.16103        31.66233         0.49044
C         48.92617        30.93987         0.79433
C         50.15318        33.04829         0.27843
C         48.81732        33.75996         0.13447
C         50.07022        35.90580        -0.11564
C         48.93800        35.20137         0.57895
C         50.09208        37.40909        -0.15547
C         48.94779        38.15015         0.41240
C         50.14908        40.28858        -0.04552
C         48.94919        39.57001         0.32243
C         50.14305        41.66433        -0.14680
C         48.94268        42.43022         0.09928
C         50.07152        44.48434        -0.70246
C         48.95153        43.82005        -0.06978
C         49.94237        45.85573        -1.11159
C         48.70588        46.57967        -0.87906
C         49.68855        48.55116        -1.96728
C         48.58560        47.96231        -1.29926
C         51.38159        25.26954         1.28974
C         52.69546        27.37254         0.88325
C         51.48936        26.64852         1.01274
C         52.63902        28.72938         0.19706
C         51.42753        29.55306         0.53062
C         52.62741        31.63885         0.06026
C         51.40412        30.92781         0.36246
C         52.61349        33.05005        -0.04295
C         51.36363        33.76403         0.05359
C         52.52389        35.91141        -0.41901
C         51.36253        35.19171        -0.16363
C         52.52465        37.35270        -0.55367
C         51.37948        38.08740        -0.29295
C         52.57555        40.23467        -0.77667
C         51.47341        39.55895         0.00320
C         52.55488        41.59023        -0.91400
C         51.45076        42.41627        -0.28130
C         52.34150        44.39521        -1.63935
C         51.27455        43.78564        -0.91034
C         52.19394        45.73746        -2.12398
C         50.99993        46.48166        -1.81363
C         50.84082        47.84136        -2.22582
C         55.14525        27.47368         0.82088
C         53.97738        26.79149         1.08887
C         55.13902        28.85756         0.42114
C         53.91200        29.52872         0.27191
C         55.09697        31.63764        -0.17575
C         53.87560        30.92843         0.03667
C         55.04616        33.05717        -0.42909
C         53.83069        33.74971        -0.29424
C         54.97225        35.89251        -1.02316
C         53.86435        35.25766        -0.21629
C         54.90089        37.26392        -1.33771
C         53.74074        38.04602        -0.97879
C         54.83605        40.09813        -1.82481
C         53.72506        39.43312        -1.18151
C         54.82632        41.49104        -2.01445
C         53.80946        42.33873        -1.28581
C         54.54302        44.26295        -2.71871
C         53.53552        43.67523        -1.93768
C         54.37704        45.58973        -3.20053
C         53.24003        46.30620        -2.89929
C         56.34927        29.58381         0.23910
C         56.32303        30.92399        -0.08931
C         56.20897        33.78258        -0.87213
C         56.14219        35.10915        -1.23343
C         55.97133        37.93852        -2.01844
C         55.92784        39.27897        -2.27506
C         55.82893        42.17274        -2.76716
C         55.71764        43.50499        -3.07284
O         48.83971        35.39616         2.01230
O         47.45046        44.49929         1.76300
O         49.73876        26.98286        -0.63043
O         46.01576        37.76802         2.51445
O         45.78895        24.90999        -0.51190
O         42.41370        48.59108         2.25852
O         45.02940        40.80764        -0.25585
O         40.49382        22.78000         1.52008
O         49.69941        36.59809        -1.34334
O         44.44237        26.82452         2.34077
O         37.72478        45.94028         3.14964
H         36.89085        45.49386         3.41147
O         43.64530        29.50400         2.95670
H         43.67608        28.56698         3.25982
O         50.55861        28.73949         2.56188
H         50.56595        29.65209         2.92175
O         35.85969        33.45687        -2.64745
H         36.72070        33.00420        -2.83301
O         41.36052        43.68665        -0.67111
H         42.08387        43.11134        -1.00250
O         40.27668        41.52413         3.03525
H         39.42991        41.10240         3.29676
O         52.49338        28.40246        -1.24397
H         53.25322        27.83073        -1.48579
O         28.28789        33.12290        -3.72826
H         28.10330        33.99058        -4.14788
O         32.56759        39.82235         2.28690
H         32.43316        38.83866         2.32060
O         32.32079        38.42442        -1.88647
H         31.63105        38.89537        -2.39854
O         51.91562        42.64760         1.10297
H         51.97422        41.75258         1.52093
O         41.76502        39.81513        -0.72929
H         42.68004        39.54489        -0.96400
O         41.84101        52.85146         2.15661
H         42.63970        52.34204         2.41219
O         48.51900        33.80238        -1.29089
H         48.55258        32.88650        -1.63793
O         54.20020        35.55142         1.20150
H         55.09177        35.17546         1.36541
O         54.44496        42.67318         0.00613
H         53.71078        42.93238         0.61978
O         43.07374        24.47894        -1.38620
H         44.05259        24.57719        -1.45297
O         47.88943        28.34022         2.75385
H         47.84228        29.14955         3.30927
O         45.88980        46.14580        -1.79177
H         46.47545        46.64081        -2.40550
O         46.57947        31.10551         3.01940
H         45.71290        30.81861         3.38653
O         35.55206        27.44975        -2.88646
H         34.78715        27.95174        -3.24181
O         44.33781        42.42747         2.88870
H         43.59161        42.87497         3.34110
O         30.44869        28.65961        -3.01185
H         29.58055        28.23295        -3.17669
O         39.66220        29.56691        -2.21620
H         40.60983        29.82180        -2.25310
O         38.30278        31.96443        -2.38098
H         38.64266        31.08763        -2.69829
O         30.16455        41.26480         2.25912
H         30.96793        40.75940         2.54983
O         32.38838        37.15078         1.54555
H         32.98381        36.50420         1.98054
O         30.95606        33.42368        -3.44167
H         30.14029        33.07843        -3.88517
O         51.90520        39.69189         1.41768
H         51.31385        39.13173         1.96525
O         47.36964        27.85518        -0.84095
H         48.18853        27.67616        -1.36219
H         27.11631        27.35220        -0.23378
H         25.94822        29.50589        -0.58515
H         25.98658        31.86929        -1.31144
H         25.94922        33.61436        -2.37703
H         25.90301        35.86126        -1.49482
H         25.85237        37.61306        -0.81016
H         25.82168        39.97719        -0.27443
H         25.85594        41.87543        -0.50237
H         25.82545        44.32467        -0.23810
H         27.00116        46.43622         0.20065
H         29.18787        26.03562        -0.12611
H         29.07913        47.66943         0.62294
H         32.85091        23.64812        -0.55390
H         30.76720        24.92085        -0.45999
H         32.76364        49.83369         0.97504
H         30.68162        48.60763         0.84323
H         34.43276        22.68065        -1.26751
H         34.39703        50.78578         0.95646
H         36.50598        21.40653        -1.06617
H         36.48926        51.99591         0.95856
H         40.14605        19.13431        -0.12078
H         38.11766        20.38885        -0.65163
H         40.12283        54.13724         0.23546
H         38.06467        52.86006         0.40327
H         42.61791        19.06100         0.47469
H         42.50607        54.09664        -0.38899
H         44.68651        20.26809         0.99345
H         44.47492        52.80924        -1.03090
H         48.51142        22.47600         1.19472
H         46.42203        21.26398         1.05259
H         48.21315        50.68238        -1.52148
H         46.20150        51.92863        -1.00167
H         50.16295        23.52963         1.53847
H         49.62822        49.59419        -2.30617
H         52.28569        24.68957         1.52455
H         51.65406        48.35002        -2.75913
H         56.11452        26.97859         0.97669
H         54.04088        25.76439         1.47722
H         55.17099        46.04210        -3.81193
H         53.14788        47.33086        -3.28204
H         57.31001        29.06094         0.35081
H         57.27472        31.45160        -0.23941
H         57.15176        33.24227        -1.02998
H         57.03349        35.57019        -1.68151
H         56.84688        37.36586        -2.35244
H         56.77604        39.74256        -2.79601
H         56.69426        41.61707        -3.15466
H         56.49840        44.00002        -3.66837
