         600
 CSIRO Nanostructure Databank - Neutral Graphene Oxide Data Set
C         22.99619        27.81122         1.67435
C         22.98984        28.94487         0.90421
C         23.02135        31.64478        -0.15700
C         23.02698        33.01771        -0.48319
C         23.01562        35.91518        -0.90613
C         23.01683        37.29305        -1.03192
C         23.02229        40.21398        -1.27291
C         23.02212        41.59441        -1.33879
C         22.99940        44.54814        -1.37896
C         22.95117        45.88216        -1.19266
C         25.41404        25.60701         3.42275
C         24.22017        26.15312         3.01343
C         25.46001        27.70938         1.55091
C         24.22517        27.21388         2.07346
C         25.43956        28.91498         0.77593
C         24.21332        29.56995         0.50932
C         25.46978        31.52811        -0.54968
C         24.18984        30.91028        -0.03648
C         25.47296        33.05087        -0.53533
C         24.21636        33.74759        -0.59601
C         25.45072        35.90274        -0.74335
C         24.21809        35.18869        -0.75360
C         25.44989        37.33071        -0.83668
C         24.21879        38.03467        -0.98897
C         25.44514        40.19199        -0.98237
C         24.21918        39.47931        -1.08529
C         25.44473        41.62168        -1.03767
C         24.22146        42.33779        -1.21435
C         25.43071        44.47465        -1.04765
C         24.22776        43.78070        -1.20940
C         25.44188        45.92076        -0.87056
C         24.13025        46.66461        -0.68120
C         25.39291        48.71191        -1.23993
C         24.23772        48.04094        -1.30362
C         28.56567        23.24672         2.52690
C         28.53841        24.67149         2.37814
C         26.62991        26.02398         2.82091
C         27.90758        27.44119         1.03234
C         26.69572        27.05445         1.88331
C         27.94556        28.94788         0.84167
C         26.70448        29.60445         0.52902
C         27.92848        31.75748         0.21608
C         26.69566        30.92070         0.07901
C         27.95082        32.96892        -0.72854
C         26.66716        33.75269        -0.60491
C         27.91770        35.90534        -0.59045
C         26.69093        35.19035        -0.65047
C         27.91500        37.33780        -0.62063
C         26.68539        38.04962        -0.76505
C         27.90366        40.19756        -0.72379
C         26.68092        39.47926        -0.82032
C         27.90468        41.63042        -0.77658
C         26.67732        42.33546        -0.92272
C         27.90012        44.47359        -0.91521
C         26.68166        43.76435        -0.96692
C         27.90487        45.95179        -1.20953
C         26.61275        46.61797        -0.81076
C         27.88710        48.81720        -0.69408
C         26.56808        48.10045        -0.49457
C         27.90705        50.21184        -0.65000
C         30.51072        23.13933         1.07688
C         29.50108        22.50254         1.84309
C         30.37913        24.59440         0.70219
C         29.33193        25.34696         1.48246
C         30.43432        27.45067         0.94870
C         29.26913        26.79797         1.28111
C         30.46863        28.95598         1.00815
C         29.17339        29.62455         0.60746
C         30.42600        31.56822        -0.40847
C         29.18929        30.94475         0.18231
C         30.41316        33.07967        -0.34344
C         29.20582        33.77668        -0.48262
C         30.39008        35.91729        -0.30011
C         29.17120        35.19587        -0.46059
C         30.38155        37.36882        -0.33470
C         29.14298        38.06457        -0.51654
C         30.36092        40.22292        -0.49391
C         29.13744        39.49146        -0.57404
C         30.36117        41.65324        -0.52556
C         29.12698        42.35614        -0.67342
C         30.35498        44.51329        -0.62830
C         29.12233        43.78416        -0.75631
C         30.34664        45.96918        -0.61973
C         29.15048        46.67433        -0.76246
C         30.34708        48.83426        -0.57928
C         29.11908        48.10602        -0.68854
C         30.34185        50.26251        -0.53437
C         29.10708        50.92639        -0.60059
C         32.89273        20.33081         0.47991
C         31.72030        21.01383         0.67279
C         32.92174        23.16125         0.52441
C         31.68943        22.44085         0.71988
C         32.92742        24.59298         0.58930
C         31.70768        25.32596         0.73413
C         32.93951        27.43866         0.64752
C         31.70606        26.72403         0.81008
C         32.94298        28.86858         0.49648
C         31.71304        29.59058         0.43913
C         32.92215        31.66007        -0.05235
C         31.70385        30.93385         0.07558
C         32.90450        33.08079        -0.18825
C         31.63593        33.78861        -0.24324
C         32.87495        35.91392         0.02326
C         31.60590        35.19980        -0.19422
C         32.86013        37.42246        -0.00906
C         31.58072        38.10375        -0.26364
C         32.83359        40.23965        -0.37997
C         31.59500        39.52050        -0.38297
C         32.83261        41.66111        -0.34662
C         31.57953        42.37862        -0.39486
C         32.77686        44.55744        -0.10921
C         31.54608        43.80524        -0.40460
C         32.81930        46.00478        -0.35075
C         31.59031        46.69657        -0.48838
C         32.81893        48.83147        -0.42078
C         31.58151        48.12016        -0.50402
C         32.82168        50.26890        -0.35379
C         31.59906        50.98538        -0.37972
C         32.83244        53.07270         0.00670
C         31.63882        52.38975        -0.21359
C         35.41589        18.86809         0.31277
C         35.38040        20.29509         0.34676
C         34.14530        21.01273         0.40027
C         35.39490        23.15095         0.39654
C         34.14725        22.44195         0.42657
C         35.39964        24.57487         0.42643
C         34.16604        25.29458         0.52767
C         35.40529        27.42494         0.35746
C         34.16592        26.72337         0.52388
C         35.40607        28.84086         0.23463
C         34.16635        29.55318         0.25467
C         35.38863        31.67114        -0.10655
C         34.16091        30.96519         0.05099
C         35.37454        33.08472        -0.26011
C         34.12927        33.78780        -0.24896
C         35.32902        35.93648        -0.42644
C         34.14574        35.22087        -0.25443
C         35.32161        37.39410        -0.46940
C         34.11469        38.11883        -0.32260
C         35.30657        40.23927        -0.59713
C         34.08771        39.53228        -0.44392
C         35.30496        41.67524        -0.54405
C         34.07517        42.35323        -0.34294
C         35.33830        44.54851        -0.32430
C         34.10071        43.79709        -0.09544
C         35.33495        45.96221        -0.36872
C         34.06174        46.69235        -0.37423
C         35.28993        48.86091        -0.54739
C         34.03464        48.10569        -0.42289
C         35.27522        50.27871        -0.17649
C         34.06272        50.97923        -0.15048
C         35.32685        53.10370         0.29367
C         34.06704        52.40307         0.06088
C         35.39350        54.51446         0.37927
C         37.85539        18.85793         0.41392
C         36.59999        18.17859         0.34706
C         37.85631        20.28495         0.38995
C         36.62082        21.00448         0.36031
C         37.87382        23.14120         0.37040
C         36.62758        22.43190         0.37327
C         37.87329        24.57276         0.31038
C         36.63991        25.28315         0.34596
C         37.87316        27.41411         0.14352
C         36.63993        26.70965         0.28751
C         37.86934        28.83809         0.01880
C         36.63494        29.54511         0.04894
C         37.84833        31.67162        -0.28909
C         36.62834        30.96450        -0.10669
C         37.83415        33.09454        -0.43986
C         36.59723        33.80121        -0.40184
C         37.78906        35.91188        -0.76816
C         36.58333        35.22520        -0.54956
C         37.75436        37.36223        -1.15990
C         36.52356        38.09846        -0.70323
C         37.78012        40.21502        -0.80374
C         36.54044        39.51755        -0.71431
C         37.79947        41.70310        -1.01463
C         36.52588        42.39825        -0.60693
C         37.79624        44.51078        -0.38870
C         36.54694        43.81344        -0.47816
C         37.82127        45.93256        -0.31804
C         36.58342        46.64248        -0.43865
C         37.87977        48.84427        -0.38697
C         36.59655        48.09961        -0.62274
C         37.81161        50.16959         0.28549
C         36.49542        50.91221         0.33260
C         37.76701        53.01404         0.74282
C         36.53156        52.37306         0.47011
C         37.79617        54.43749         0.80437
C         36.59925        55.15868         0.61386
C         40.28481        16.01821         0.85729
C         39.12754        16.71690         0.72558
C         40.30562        18.87928         0.47854
C         39.09060        18.14519         0.48026
C         40.31340        20.28215         0.52401
C         39.09412        20.99990         0.46032
C         40.35430        23.15065         0.36904
C         39.10135        22.43493         0.42093
C         40.34861        24.57069         0.22219
C         39.10926        25.28210         0.21562
C         40.34822        27.41373        -0.01917
C         39.10877        26.70365         0.11619
C         40.33464        28.83715        -0.18662
C         39.09676        29.54574        -0.16279
C         40.30898        31.67487        -0.51689
C         39.08651        30.96424        -0.32055
C         40.29641        33.09672        -0.66874
C         39.05462        33.80318        -0.62174
C         40.26316        35.93993        -0.91623
C         39.03072        35.22331        -0.78136
C         40.25431        37.37874        -0.89113
C         39.03458        38.09084        -0.86223
C         40.25535        40.21622        -0.64323
C         39.01340        39.50641        -0.77842
C         40.25506        41.62304        -0.37590
C         39.02645        42.36952        -0.43619
C         40.19248        44.44772         0.27367
C         39.00046        43.74514        -0.22613
C         40.26465        45.91439         0.15088
C         39.08675        46.61240        -0.17052
C         40.32891        48.77124         0.35995
C         39.15374        48.08189        -0.21345
C         40.31268        50.15788         0.59971
C         39.07177        50.91106         0.51101
C         40.19931        52.89915         1.43354
C         39.00661        52.25140         0.83602
C         40.16444        54.39175         1.64920
C         39.06213        55.13110         0.99080
C         40.60734        56.98364         0.53720
C         39.31545        56.36923         0.44774
C         42.84863        16.02267         0.94693
C         41.57846        16.63938         0.54441
C         42.85638        18.88202         0.53462
C         41.58403        18.15609         0.36866
C         42.86083        20.28664         0.55777
C         41.58423        21.02054         0.87638
C         42.81621        23.15940         0.35154
C         41.58721        22.46198         0.44404
C         42.80881        24.56924         0.21770
C         41.58821        25.27850         0.15605
C         42.81456        27.42566        -0.17339
C         41.58075        26.71485         0.00897
C         42.79167        28.83481        -0.41360
C         41.55408        29.54338        -0.39156
C         42.76241        31.67126        -0.78211
C         41.54308        30.96475        -0.56474
C         42.75011        33.09502        -0.92459
C         41.51570        33.80550        -0.86562
C         42.72662        35.95231        -1.11472
C         41.50289        35.24001        -0.97272
C         42.72678        37.39325        -1.05491
C         41.49053        38.08941        -0.87310
C         42.72379        40.20961        -0.63534
C         41.48460        39.50810        -0.72080
C         42.72407        41.59952        -0.32746
C         41.48479        42.27108        -0.12986
C         42.76208        44.41277         0.30584
C         41.50337        43.66213         0.32367
C         42.74458        45.82569         0.46167
C         41.50716        46.57873         0.37045
C         42.74368        48.71472         0.70053
C         41.53160        48.01759         0.48849
C         42.75660        50.10702         0.97497
C         41.52382        50.82798         0.98731
C         42.69563        52.86433         1.73070
C         41.50662        52.19713         1.39091
C         42.67086        54.28270         2.19273
C         41.40637        55.17065         2.06600
C         42.90643        57.08753         1.42012
C         41.64307        56.40856         1.22589
C         44.01143        16.72157         0.87704
C         45.30232        18.84678         0.50077
C         44.06397        18.14203         0.59526
C         45.30777        20.26855         0.34696
C         44.07734        21.00389         0.43864
C         45.29876        23.12928         0.12522
C         44.08087        22.43574         0.35418
C         45.32854        24.55548         0.00042
C         44.09891        25.33040         0.39808
C         45.25915        27.40876        -0.42341
C         44.05615        26.73534        -0.14561
C         45.24303        28.82190        -0.66742
C         44.01216        29.53817        -0.64523
C         45.21157        31.64838        -1.12934
C         43.99635        30.95554        -0.84947
C         45.20544        33.09403        -1.25440
C         43.97567        33.80581        -1.11394
C         45.18974        35.93819        -1.36294
C         43.96913        35.23478        -1.20524
C         45.12842        37.39799        -1.74436
C         43.93484        38.11892        -1.15213
C         45.17455        40.24747        -0.77493
C         43.95688        39.52098        -0.87886
C         45.18846        41.60540        -0.35027
C         43.95854        42.30249        -0.16506
C         45.22257        44.38628         0.30790
C         43.97792        43.70431         0.14711
C         45.22291        45.78773         0.58281
C         43.98612        46.49664         0.58660
C         45.28082        48.67896         0.88733
C         44.00230        47.96827         0.58439
C         45.22462        50.10013         1.29290
C         43.98473        50.80072         1.28546
C         45.20904        52.87171         1.84433
C         43.95484        52.18245         1.63821
C         45.24244        54.27852         2.05321
C         43.97709        55.02070         2.28195
C         43.96253        56.48465         2.01442
C         47.72909        18.81699         0.29631
C         46.54737        18.15207         0.49834
C         47.75663        20.22151         0.05965
C         46.53378        20.95823         0.11490
C         47.70719        23.08250        -0.37634
C         46.52316        22.39212        -0.04125
C         47.73590        24.50230        -0.49663
C         46.50809        25.23885        -0.31649
C         47.70103        27.37182        -0.76260
C         46.51157        26.68602        -0.48305
C         47.70665        28.80038        -0.97606
C         46.45867        29.52092        -0.92371
C         47.65826        31.58470        -1.60399
C         46.41895        30.91234        -1.19586
C         47.65860        33.11159        -1.72654
C         46.40623        33.82291        -1.43101
C         47.68724        35.96124        -1.47257
C         46.41649        35.24432        -1.43015
C         47.70296        37.37487        -1.38348
C         46.45025        38.13815        -1.56267
C         47.70158        40.16496        -0.63186
C         46.44831        39.58704        -1.12500
C         47.65586        41.48713        -0.00770
C         46.42118        42.27984        -0.06239
C         47.70469        44.36800         0.41515
C         46.45371        43.65811         0.24456
C         47.69062        45.77975         0.69375
C         46.46670        46.46058         0.81728
C         47.73018        48.60928         1.33238
C         46.43259        47.84909         1.40756
C         47.69605        49.99963         1.51405
C         46.44275        50.74254         1.55876
C         47.69032        52.85464         1.87470
C         46.44750        52.15869         1.77077
C         47.67463        54.24476         2.06555
C         46.47058        54.93994         2.15418
C         50.23309        20.24388        -0.27869
C         48.98398        20.88313        -0.26400
C         50.26012        23.05658        -0.74735
C         48.92042        22.29632        -0.64572
C         50.21498        24.51797        -0.64141
C         48.96830        25.20734        -0.66556
C         50.15852        27.33553        -0.97036
C         48.96664        26.65263        -0.78348
C         50.20278        28.76134        -1.44938
C         48.91501        29.49810        -1.19456
C         50.14893        31.63757        -1.38964
C         48.93716        30.89920        -1.37796
C         50.13219        33.06559        -1.53968
C         48.94774        33.81097        -1.61014
C         50.14309        35.98601        -1.47799
C         48.92910        35.25255        -1.52346
C         50.14888        37.37808        -1.22397
C         48.91215        38.08637        -1.17251
C         50.16852        40.20426        -0.70298
C         48.91008        39.49515        -0.82170
C         50.20139        41.59652        -0.36199
C         48.98518        42.24099         0.14978
C         50.17534        44.41326         0.30816
C         48.94324        43.70502         0.27262
C         50.17915        45.81149         0.62776
C         48.94623        46.48722         0.84487
C         50.20154        48.55359         1.31184
C         48.96014        47.88386         1.16248
C         50.17732        49.95755         1.75499
C         48.92528        50.72472         1.66782
C         50.19615        52.82165         1.69230
C         48.94192        52.11732         1.79192
C         51.44366        20.94471        -0.34859
C         52.68977        23.10765        -0.17643
C         51.49973        22.34405        -0.42805
C         52.67382        24.53349        -0.30949
C         51.44217        25.19830        -0.59659
C         52.71462        27.41835        -0.75467
C         51.43251        26.62060        -0.94113
C         52.61638        28.88872        -0.65460
C         51.42552        29.54483        -0.99832
C         52.60766        31.70092        -0.91337
C         51.39580        30.96179        -1.09933
C         52.65383        33.09777        -1.19160
C         51.42969        33.75979        -1.65533
C         52.67672        35.99975        -1.38963
C         51.42470        35.29813        -1.68205
C         52.65187        37.42072        -1.25745
C         51.39306        38.10271        -1.13842
C         52.62118        40.25624        -1.15765
C         51.37065        39.50666        -0.97908
C         52.62347        41.75880        -0.88286
C         51.37844        42.36523        -0.39166
C         52.64920        44.43514         0.11192
C         51.40431        43.72919         0.03670
C         52.66033        45.81541         0.46988
C         51.42611        46.50928         0.72255
C         52.69246        48.61285         1.12334
C         51.43444        47.89095         1.07567
C         52.72831        50.00640         1.37778
C         51.49847        50.73584         1.76167
C         51.39229        52.18374         1.58035
C         55.02630        23.20433         0.51240
C         53.90449        22.47244         0.19916
C         55.02329        24.62693         0.47224
C         53.85601        25.30053        -0.00846
C         54.92871        27.51122         0.32529
C         53.85890        26.73051        -0.13732
C         54.97043        28.93458         0.13260
C         53.79566        29.61777        -0.32578
C         55.03355        31.75116        -0.41000
C         53.80649        31.02973        -0.51915
C         55.06564        33.15395        -0.69584
C         53.85568        33.82974        -1.06347
C         55.12446        35.95704        -1.17139
C         53.88410        35.26272        -1.24831
C         55.14002        37.40123        -1.60428
C         53.88071        38.13992        -1.22731
C         55.12120        40.27477        -1.04882
C         53.90421        39.53992        -1.12804
C         55.11889        41.68241        -0.76069
C         53.90598        42.40165        -0.57254
C         55.13367        44.44569         0.00484
C         53.89322        43.75021        -0.13747
C         55.13391        45.83263         0.32966
C         53.90293        46.51892         0.55695
C         55.15403        48.63404         0.88694
C         53.91617        47.92236         0.85725
C         55.14042        50.02505         1.11309
C         53.95085        50.69613         1.34447
C         57.34775        24.78168         1.38828
C         56.15068        25.37804         0.95316
C         57.35764        27.65425         1.20527
C         56.03627        26.83563         1.00744
C         57.39847        29.02251         0.68298
C         56.18615        29.67283         0.29801
C         57.47622        31.76520        -0.04568
C         56.22830        31.06470        -0.04731
C         57.51021        33.16492        -0.34457
C         56.29375        33.86556        -0.63111
C         57.57812        35.98978        -0.88280
C         56.32196        35.27576        -0.89933
C         57.60849        37.41115        -1.08600
C         56.39609        38.14489        -1.25958
C         57.59756        40.27683        -1.03042
C         56.37792        39.56324        -1.13381
C         57.60439        41.66473        -0.72517
C         56.36192        42.36648        -0.55843
C         57.60995        44.44016        -0.07835
C         56.36609        43.74594        -0.21274
C         57.61144        45.83479         0.22372
C         56.38150        46.53713         0.41776
C         57.65290        48.59849         0.77892
C         56.40387        47.92948         0.69073
C         58.52823        25.50848         1.57619
C         59.82289        27.58747         1.18414
C         58.59626        26.89001         1.33771
C         59.84351        28.92694         0.85838
C         58.64954        29.66504         0.57912
C         59.91003        31.77644         0.15532
C         58.69227        31.06703         0.21961
C         59.93883        33.13180        -0.12933
C         58.75391        33.85706        -0.37182
C         60.00300        36.00097        -0.64892
C         58.78585        35.28663        -0.63964
C         60.03224        37.37385        -0.87870
C         58.85262        38.09734        -1.07292
C         60.10328        40.29524        -0.95544
C         58.87377        39.56985        -1.42372
C         60.07309        41.59805        -0.60307
C         58.84143        42.35437        -0.53567
C         60.07240        44.48298        -0.12479
C         58.84848        43.74723        -0.24579
C         60.07300        45.82561         0.14597
C         58.84792        46.53411         0.32857
C         58.84333        47.92125         0.60813
O         33.40852        44.17117         1.15847
O         37.00627        50.13203         1.51294
O         47.56409        32.24969        -2.90987
O         49.55271        22.57313        -1.93483
O         35.95659        48.57536        -1.85797
O         51.53741        34.50013        -2.91353
O         27.73861        25.33787         3.30883
O         41.61790        17.25277        -0.79021
O         32.89835        36.69239         1.27667
O         48.35886        41.54762         1.28372
O         43.30710        54.51550         3.49411
O         39.79509        53.48971         2.73680
O         52.33524        26.92231        -2.09289
O         38.78004        48.73489        -1.51868
O         40.70160        43.91685         1.53639
O         56.39817        27.44055         2.28261
O         44.91318        48.48067        -0.50337
O         52.53877        41.24092        -2.25318
O         50.91640        50.21840         3.00167
O         46.56516        39.20500        -2.56861
O         27.87777        32.35888         1.56608
H         27.99445        31.63572         2.21935
O         30.56436        29.26481         2.45670
H         31.36589        28.81369         2.79874
O         41.56526        21.07501         2.36126
H         40.79396        21.62347         2.62063
O         58.91736        39.61174        -2.90001
H         58.79728        40.54723        -3.16893
O         28.00645        32.45266        -2.09223
H         27.82227        33.19056        -2.70961
O         46.13977        47.67018         2.83862
H         46.90276        47.20847         3.24653
O         41.10587        55.69989         3.37760
H         40.84702        54.93491         3.93735
O         44.22590        25.50385         1.86784
H         43.43251        25.99596         2.16975
O         27.93923        46.05887        -2.68825
H         27.17442        45.54972        -3.03301
O         55.11824        37.35515        -3.08843
H         54.29997        36.88005        -3.35123
O         30.38803        31.20194        -1.83335
H         29.52130        31.53128        -2.19039
O         25.52273        31.13769        -1.97539
H         24.64916        31.35552        -2.36478
O         50.32174        28.66645        -2.91249
H         51.10808        28.09288        -3.08487
O         23.90717        46.86334         0.75854
H         23.85109        45.97490         1.17004
O         29.93301        24.62352        -0.71595
H         30.61168        24.15294        -1.24611
O         44.85911        37.37570        -3.18474
H         45.24165        38.20952        -3.54759
O         37.64953        37.35712        -2.64302
H         37.71290        38.29140        -2.93895
O         26.29693        48.23683         0.93154
H         25.40329        47.84070         1.09905
O         37.89779        41.88024        -2.49338
H         37.91254        42.84615        -2.66722
O         27.57915        26.92094        -0.31326
H         28.24194        26.23517        -0.55849
H         22.05183        27.36857         2.02231
H         22.02717        29.39559         0.63076
H         22.04709        31.18826         0.06489
H         22.05675        33.52740        -0.54431
H         22.05189        35.39010        -0.93320
H         22.05362        37.80575        -1.15140
H         22.06262        39.68947        -1.36822
H         22.06381        42.11146        -1.47902
H         22.08618        44.02223        -1.69139
H         22.00211        46.42280        -1.32751
H         25.44609        24.80325         4.16987
H         23.26522        25.79728         3.42496
H         25.48321        49.71583        -1.68119
H         23.35213        48.46912        -1.79750
H         27.86332        22.77104         3.22297
H         26.96060        50.76958        -0.61941
H         29.55394        21.41878         2.01874
H         29.06138        52.02312        -0.57013
H         32.85805        19.23530         0.42293
H         30.78052        20.45086         0.75366
H         32.78808        54.16044         0.15336
H         30.70700        52.97048        -0.22883
H         34.48016        18.29691         0.25843
H         34.48635        55.12037         0.25410
H         36.57367        17.08165         0.31034
H         36.61813        56.25581         0.67486
H         40.26651        14.96641         1.17920
H         38.17958        16.19641         0.92007
H         40.76361        57.94608         0.02762
H         38.52701        56.89575        -0.10827
H         42.84557        14.97727         1.28924
H         42.97643        58.14324         1.11510
H         44.94499        16.20405         1.13737
H         44.87694        57.06667         2.19733
H         48.66419        18.24251         0.28051
H         46.57005        17.06302         0.63269
H         48.61032        54.80742         2.17500
H         46.50333        56.02231         2.33386
H         50.29040        19.15857        -0.12024
H         50.18159        53.91441         1.58348
H         52.37091        20.36593        -0.23867
H         52.28806        52.76390         1.31856
H         55.93050        22.66966         0.83074
H         53.94972        21.37785         0.27111
H         56.07452        50.60004         1.12445
H         53.97999        51.77496         1.54620
H         57.40952        23.68846         1.47477
H         57.69040        49.67358         0.99618
H         59.45786        24.96169         1.79154
H         60.76721        27.04392         1.33247
H         60.81812        29.42408         0.77092
H         60.86217        31.26342         0.34185
H         60.91414        33.63406        -0.15883
H         60.95578        35.48281        -0.48191
H         61.00814        37.87585        -0.90269
H         61.07499        39.78636        -1.01799
H         61.01733        42.09168        -0.33582
H         61.03393        43.97310        -0.26654
H         61.02199        46.37533         0.22489
H         59.80016        48.45682         0.68760
