         762
 CSIRO Nanostructure Databank - Neutral Graphene Oxide Data Set
C         22.99318        24.95113         2.32523
C         21.78903        25.71237         2.28582
C         23.04630        27.82527         2.11302
C         21.79062        27.06731         2.11267
C         23.07228        29.21922         1.58972
C         21.89141        30.03782         1.70776
C         22.88390        31.87516         0.39661
C         21.80229        31.30340         1.20594
C         22.79715        33.29515        -0.12226
C         21.84254        33.60199        -1.09942
C         23.04946        35.64865        -1.61730
C         21.94816        34.80437        -1.80420
C         23.08861        37.94112        -1.64373
C         21.88237        38.67022        -1.66623
C         22.98050        40.53551        -0.57725
C         21.79917        39.89987        -1.03826
C         22.95181        41.88761        -0.10419
C         21.77699        42.63801         0.22560
C         23.05892        44.65426         0.92869
C         21.80230        43.96297         0.59515
C         23.19042        46.17533         1.19538
C         21.87174        46.88373         1.09220
C         22.90852        48.82125         0.06001
C         21.78163        48.15253         0.59620
C         25.51343        23.36431         2.20414
C         25.45650        24.75750         2.07361
C         24.24050        25.53040         2.13938
C         25.54112        27.62187         1.45250
C         24.34056        27.01328         2.08921
C         25.48392        28.99631         0.97367
C         24.25574        29.76372         1.10654
C         25.51288        31.77859         0.27112
C         24.20933        31.11182         0.48892
C         25.66542        33.20477         0.31425
C         23.82640        34.23195         0.09608
C         25.38807        36.10795        -0.65030
C         24.08147        35.38514        -0.68267
C         25.43769        37.57778        -0.74263
C         24.23337        38.38591        -0.95886
C         25.46088        40.42389        -0.37898
C         24.22475        39.78914        -0.62270
C         25.52208        41.87490        -0.37182
C         24.19135        42.63985        -0.18623
C         25.55997        44.70438         0.24256
C         24.31606        43.95234         0.48981
C         25.51347        46.14809         0.10756
C         24.29379        46.83105         0.35800
C         25.27976        48.84341        -0.72581
C         24.16024        48.17722        -0.07594
C         25.10831        50.11839        -1.30693
C         27.96035        23.20662         1.85904
C         26.70136        22.62152         2.10578
C         28.01179        24.68703         1.84008
C         26.73172        25.49124         1.94627
C         27.87188        27.34551         0.63613
C         26.68992        26.86332         1.37438
C         27.80145        28.75287         0.05791
C         26.60696        29.57783         0.35523
C         27.83337        31.65312        -0.49460
C         26.62497        30.98290         0.03965
C         27.85802        33.14925        -0.72325
C         26.66403        33.93575        -0.30764
C         27.90102        36.04341        -0.71589
C         26.58952        35.37230        -0.51625
C         27.93062        37.57115        -0.54724
C         26.63222        38.26211        -0.43392
C         27.89974        40.39014        -0.05148
C         26.67901        39.69425        -0.25552
C         27.96026        41.81545         0.01808
C         26.76161        42.56266        -0.03250
C         27.99465        44.74088        -0.04829
C         26.73001        43.98439         0.05029
C         27.86364        46.05400        -0.74879
C         26.63162        46.82306        -0.45078
C         27.66714        48.83778        -1.48675
C         26.55018        48.18444        -0.85156
C         27.38591        50.05870        -2.11495
C         26.13658        50.70308        -2.02050
C         30.30108        20.30228         1.39058
C         29.19411        21.02260         1.69944
C         30.40761        23.14246         1.37246
C         29.15278        22.46477         1.63395
C         30.41304        24.60247         1.32493
C         29.23920        25.33796         1.33238
C         30.36642        27.36652         0.52951
C         29.20092        26.71222         0.87911
C         30.39331        28.71926        -0.06081
C         29.09821        29.44567        -0.27558
C         30.39828        31.67719        -0.11633
C         29.10901        30.94239        -0.17542
C         30.44584        33.13722        -0.44637
C         29.17360        33.88295        -0.68170
C         30.35557        36.02775         0.00654
C         29.14917        35.32589        -0.44719
C         30.38226        37.50990        -0.04045
C         29.18185        38.21036        -0.12853
C         30.43236        40.36562        -0.01805
C         29.15060        39.64481         0.32397
C         30.43003        41.79779        -0.11053
C         29.23149        42.50669        -0.01329
C         30.46027        44.66023        -0.69099
C         29.26921        43.98453        -0.12028
C         30.41630        46.02890        -1.11003
C         29.08631        46.69264        -1.33892
C         30.32969        48.88361        -1.96192
C         29.00182        48.15741        -1.71610
C         30.42696        50.36065        -1.74205
C         29.37728        51.20503        -2.13118
C         30.39940        53.11138        -1.08722
C         29.34938        52.56844        -1.81518
C         32.92185        18.79668         1.38822
C         32.87326        20.29750         1.44859
C         31.55972        20.92476         0.85074
C         32.82756        23.12535         0.74845
C         31.56294        22.42305         1.08248
C         32.97424        24.53438         1.29872
C         31.68638        25.32806         1.29046
C         32.92556        27.42191         0.40346
C         31.66841        26.79154         0.88638
C         32.94948        28.68490        -0.12058
C         31.69626        29.46716         0.02919
C         32.87055        31.63802        -0.87489
C         31.71783        30.93845        -0.14079
C         32.94953        33.07370        -0.34346
C         31.70328        33.81915         0.02131
C         32.91951        36.08285         0.46579
C         31.64083        35.29925         0.36542
C         32.89283        37.48042         0.17238
C         31.63830        38.20376         0.07191
C         32.88757        40.39861        -0.00585
C         31.62285        39.63273        -0.02321
C         32.84925        41.80940        -0.44289
C         31.67073        42.51434        -0.39441
C         32.88733        44.63157        -0.97226
C         31.66163        43.94220        -0.70427
C         32.86856        46.02777        -1.24952
C         31.61385        46.70429        -1.37151
C         32.88567        48.85591        -1.55264
C         31.65403        48.08940        -2.00149
C         32.84644        50.24389        -1.16944
C         31.57255        50.96186        -1.14941
C         32.70194        52.98244        -0.14514
C         31.52325        52.33098        -0.76277
C         32.74641        54.45731         0.03003
C         35.35370        18.76091         0.99245
C         34.07648        18.11219         1.22837
C         35.32582        20.20585         0.79987
C         34.14215        20.90367         0.84941
C         35.42120        23.10410         0.50937
C         34.10644        22.35560         0.53977
C         35.43405        24.58013         0.69479
C         34.15596        25.32007         0.79382
C         35.40109        27.46173         0.65352
C         34.15099        26.66415         0.56635
C         35.46960        28.81560         0.10391
C         34.22430        29.40954        -0.41465
C         35.47807        31.66317        -0.35680
C         34.22986        30.90952        -0.69762
C         35.49197        33.08956        -0.33862
C         34.23365        33.73580        -0.81420
C         35.40840        36.08035         0.36304
C         34.18249        35.50017         0.80812
C         35.35860        37.47573         0.11814
C         34.13887        38.17373         0.10638
C         35.44691        40.32414        -0.29664
C         34.18230        39.65315         0.08025
C         35.40544        41.71494        -0.79762
C         34.09095        42.46338        -0.88092
C         35.35132        44.61296        -1.08676
C         34.12663        43.93153        -0.96149
C         35.34221        46.02977        -1.33067
C         34.11747        46.71785        -1.45368
C         35.35318        48.91257        -1.72293
C         34.09248        48.16263        -1.60594
C         35.33113        50.36268        -1.25614
C         34.02675        50.91776        -0.86745
C         35.28618        53.07733        -0.51438
C         34.02048        52.26249        -0.27019
C         35.23063        54.47446         0.09466
C         33.90074        55.11677         0.21578
C         37.74039        15.86548         0.94449
C         36.61151        16.60680         1.07989
C         37.81381        18.74254         0.66751
C         36.54710        18.04027         0.84375
C         37.86237        20.11540         0.73046
C         36.61412        20.87922         0.34696
C         37.87135        23.01755         0.75177
C         36.69250        22.34950         0.68804
C         37.95523        24.48279         0.99813
C         36.69157        25.27109         1.11096
C         37.94860        27.45933         0.67642
C         36.69664        26.76623         0.98385
C         37.92967        28.82309         0.39664
C         36.66928        29.51746         0.13330
C         37.90193        31.68513        -0.00327
C         36.67430        30.95368        -0.09267
C         37.89595        33.11139        -0.01300
C         36.65442        33.83855        -0.05066
C         37.84971        35.99066         0.07498
C         36.64733        35.30684         0.16980
C         37.90837        37.45867         0.28567
C         36.62098        38.23069         0.22071
C         37.89991        40.32322        -0.39665
C         36.64570        39.65944        -0.16971
C         37.89110        41.79059        -0.50490
C         36.62709        42.53021        -0.71103
C         37.90677        44.66814        -0.83645
C         36.60158        43.89380        -0.90478
C         37.80468        46.05238        -1.40678
C         36.62115        46.71420        -1.50706
C         37.86235        48.85168        -1.18852
C         36.68118        48.17978        -1.89648
C         37.76835        50.15865        -0.59764
C         36.56390        50.94009        -0.66720
C         37.58580        52.78846         0.58136
C         36.51159        52.25310        -0.14417
C         37.60477        54.14473         1.04329
C         36.39674        55.00362         0.86271
C         37.37608        56.66672         2.34679
C         36.26099        56.09673         1.86805
C         40.32729        14.34336         0.39104
C         40.27411        15.71083         0.39244
C         38.97465        16.44283         0.37497
C         40.32938        18.61680         0.19025
C         39.02084        17.94791         0.31155
C         40.37378        20.08659         0.36398
C         39.15906        20.83402         0.79857
C         40.27460        23.05200         0.03454
C         39.21959        22.36014         0.90497
C         40.29040        24.47526         0.11333
C         39.19524        25.19293         0.63934
C         40.46669        27.43916         0.50673
C         39.20084        26.67612         0.79038
C         40.39926        28.87803         0.18156
C         39.17091        29.55513         0.19935
C         40.37987        31.68710        -0.09418
C         39.15293        30.97908         0.02536
C         40.36280        33.11377        -0.11835
C         39.14839        33.80307        -0.05808
C         40.39487        36.01357        -0.35118
C         39.10531        35.27189        -0.24791
C         40.45743        37.48562        -0.15075
C         39.18625        38.22938         0.07118
C         40.34813        40.25742        -0.79503
C         39.13557        39.64627        -0.36634
C         40.28940        41.61511        -1.34651
C         39.15201        42.47934        -0.95799
C         40.36064        44.58632        -1.48555
C         39.03109        43.86704        -1.57188
C         40.35516        45.98002        -1.32604
C         39.11316        46.75457        -1.72027
C         40.25002        48.74387        -0.60189
C         39.06785        48.15852        -1.15381
C         40.15461        50.02116         0.03230
C         38.90239        50.68736         0.06954
C         39.93524        52.49666         1.59783
C         38.75430        51.92776         0.86144
C         39.89972        53.94935         2.01275
C         38.71743        54.73337         1.61002
C         39.93394        56.86914         2.36620
C         38.70132        56.24355         1.74594
C         39.90214        58.25012         2.59832
C         42.74298        14.28623         0.00498
C         41.55787        13.63744         0.16627
C         42.85022        15.72841         0.25425
C         41.53407        16.48782         0.40225
C         42.79177        18.67374        -0.05617
C         41.52746        17.94876         0.12485
C         42.77418        20.05315        -0.28330
C         41.42458        20.73489        -0.49716
C         42.73475        22.99228        -0.75042
C         41.40263        22.27654        -0.52405
C         42.77385        24.50101        -0.65876
C         41.48657        25.25835        -0.31233
C         42.82524        27.35430        -0.17630
C         41.63671        26.67741         0.04745
C         42.83735        28.81387        -0.23126
C         41.61533        29.55723        -0.11642
C         42.86194        31.66467        -0.46961
C         41.62952        30.97843        -0.22595
C         42.92648        33.10980        -0.42071
C         41.67219        33.82667        -0.07959
C         42.93269        36.04544        -0.51305
C         41.69871        35.31834        -0.13417
C         42.90003        37.40872        -0.74275
C         41.66242        38.17024        -0.66122
C         42.87856        40.33332        -0.83514
C         41.59667        39.54166        -0.85642
C         42.84052        41.66651        -1.53197
C         41.61197        42.39609        -1.73105
C         42.78999        44.58665        -1.36552
C         41.58464        43.87667        -1.56985
C         42.78470        45.95487        -0.98244
C         41.55206        46.66477        -1.01539
C         42.69265        48.73372        -0.26851
C         41.50526        48.06272        -0.64132
C         42.58953        50.04481         0.29863
C         41.34263        50.62144         0.56465
C         42.54412        52.55496         1.82002
C         41.27263        51.81688         1.44566
C         42.48582        53.96259         2.37032
C         41.15838        54.68245         2.41268
C         42.36749        56.89697         2.65093
C         41.15888        56.17262         2.44379
C         42.28983        58.28499         2.92333
C         41.06927        58.94371         2.93354
C         45.27570        15.82924        -0.35254
C         44.06886        16.50077        -0.11937
C         45.27958        18.61531        -0.31387
C         44.05258        17.92204        -0.13095
C         45.27663        20.09545        -0.22110
C         43.98515        20.82218        -0.41197
C         45.24909        22.94804        -0.48742
C         43.97292        22.19833        -0.58191
C         45.28169        24.42899        -0.36643
C         44.02957        25.22080        -0.41954
C         45.34063        27.33419        -0.16542
C         44.05574        26.59334        -0.28700
C         45.30606        28.80367        -0.48652
C         44.01093        29.50071        -0.55276
C         45.30749        31.57455        -0.95563
C         44.05401        30.91860        -0.69015
C         45.36717        33.03114        -0.74737
C         44.12120        33.79329        -0.54348
C         45.40472        35.96250        -1.02773
C         44.24095        35.29997        -0.29922
C         45.36181        37.40919        -1.19368
C         44.13804        38.13626        -1.02148
C         45.34229        40.24808        -1.32030
C         44.12254        39.52957        -1.14500
C         45.35172        41.66892        -1.42772
C         44.09092        42.35997        -1.68602
C         45.31744        44.55574        -1.15283
C         44.07756        43.93294        -1.61558
C         45.25234        45.92672        -0.68561
C         44.02239        46.62438        -0.64718
C         45.14926        48.71040         0.02478
C         43.97688        48.04345        -0.31121
C         45.17473        50.16502         0.22442
C         43.80679        50.86578         0.46001
C         45.01752        52.84183         1.35568
C         43.82005        52.11141         1.21605
C         45.00411        54.18689         1.84528
C         43.74494        54.78428         2.34669
C         44.85078        56.97044         2.43528
C         43.65620        56.25314         2.48416
C         46.45767        16.52700        -0.59365
C         47.78964        18.61848        -0.96029
C         46.49223        17.92706        -0.54290
C         47.83631        20.10836        -0.72857
C         46.57650        20.82257        -0.42025
C         47.74484        22.95843        -1.22663
C         46.49096        22.22987        -0.90522
C         47.73139        24.46035        -1.27865
C         46.49632        25.17467        -0.82271
C         47.69183        27.27696        -1.11020
C         46.66297        26.56904        -0.25980
C         47.44187        28.51998        -1.65506
C         46.43820        29.43774        -1.19449
C         47.68282        31.53624        -2.04865
C         46.46331        30.84479        -1.34545
C         47.68643        33.11013        -2.01650
C         46.63020        33.78113        -1.12169
C         47.70419        35.91547        -1.98837
C         46.53214        35.25050        -1.35901
C         47.75656        37.42701        -1.90053
C         46.54670        38.12629        -1.44795
C         47.81081        40.26273        -1.52973
C         46.57333        39.54316        -1.43123
C         47.79993        41.66928        -1.40238
C         46.55300        42.39794        -1.37431
C         47.75759        44.46702        -0.61918
C         46.50546        43.82873        -1.16101
C         47.72125        45.97811        -0.57289
C         46.49475        46.60060        -0.39207
C         47.63256        48.81814        -0.01167
C         46.42600        47.94928         0.28555
C         47.63848        50.14170         0.69027
C         46.35699        50.85868         0.74957
C         47.53214        52.97810         1.23722
C         46.30347        52.20616         1.08889
C         47.46292        54.36779         1.52957
C         46.17718        54.97336         1.85906
C         46.07820        56.34674         2.18745
C         50.22525        18.68747        -0.42771
C         49.06483        17.99115        -0.44646
C         50.29397        20.10587        -0.75069
C         49.02059        20.80141        -0.83217
C         50.26789        22.97582        -1.33828
C         49.03466        22.32293        -0.70587
C         50.28953        24.49452        -1.35527
C         49.00845        25.20675        -1.21764
C         50.22668        27.32734        -1.15994
C         48.97958        26.59596        -1.25050
C         50.19495        28.80084        -1.05159
C         49.24211        29.65596        -1.79034
C         50.08351        31.73530        -0.77499
C         48.99326        30.95292        -1.49704
C         50.20211        33.13967        -1.31458
C         49.03560        33.76109        -1.66226
C         50.29083        35.95227        -1.91489
C         49.02906        35.16187        -2.19415
C         50.28056        37.39179        -2.17642
C         49.04267        38.15590        -1.91372
C         50.32272        40.25863        -1.60506
C         49.06005        39.53323        -1.70659
C         50.25147        41.68905        -1.34941
C         49.05091        42.37345        -1.30794
C         50.26117        44.67108        -1.09663
C         49.00940        43.86727        -1.22445
C         50.19525        46.08537        -0.64571
C         48.97729        46.70341        -0.48314
C         50.19353        48.92842        -0.08806
C         48.94575        48.18174        -0.35704
C         50.08276        50.44151        -0.07229
C         48.90643        50.93609         0.75463
C         49.98948        53.15551         1.02020
C         48.79956        52.39179         0.98312
C         49.88563        54.53896         1.27216
C         48.65285        55.12502         1.51937
C         52.77855        20.19688        -0.53786
C         51.51149        20.80825        -0.79352
C         52.81287        23.07217        -0.82703
C         51.55563        22.24600        -1.15345
C         52.69995        24.53712        -0.63554
C         51.52668        25.22894        -0.99458
C         52.58221        27.42179        -0.37162
C         51.42828        26.66521        -0.86268
C         52.60416        28.79113        -0.28113
C         51.37677        29.54219        -0.55707
C         52.66228        31.72889        -0.60621
C         51.44543        30.97031        -1.07300
C         52.70306        33.12475        -1.03969
C         51.51665        33.78078        -1.40003
C         52.87482        35.93020        -1.96873
C         51.54065        35.18318        -1.91662
C         52.89492        37.40957        -1.77608
C         51.63643        38.16413        -2.04816
C         52.83727        40.28235        -1.49406
C         51.54352        39.58016        -1.66939
C         52.79189        41.73217        -1.15312
C         51.48448        42.41899        -0.96400
C         52.82718        44.65281        -0.76998
C         51.51860        43.91155        -0.83611
C         52.79257        46.13010        -0.47021
C         51.45547        46.85576        -0.51740
C         52.64487        48.87898         0.35164
C         51.40989        48.25528        -0.02295
C         52.67485        50.35780         0.46643
C         51.38131        51.15074         0.28630
C         52.46188        53.10399         1.29517
C         51.29738        52.50648         0.86739
C         53.92274        20.92342        -0.28952
C         55.01712        23.07658         0.33039
C         53.95566        22.35283        -0.23899
C         54.92053        24.51281         0.49137
C         53.78681        25.20607         0.01606
C         54.87943        27.41447         0.79511
C         53.67329        26.65411         0.27278
C         55.00693        28.86983         0.52504
C         53.68914        29.61904         0.37843
C         55.09452        31.66889        -0.32318
C         53.76461        31.04114        -0.17329
C         55.16145        33.12503        -0.63658
C         54.00667        33.77364        -1.07184
C         55.44033        35.85500        -1.52411
C         54.12077        35.13142        -1.64844
C         55.38782        37.36199        -1.51881
C         54.06746        38.06802        -1.45490
C         55.23066        40.18562        -0.84377
C         54.09233        39.51437        -1.23874
C         55.21648        41.60007        -0.37629
C         53.94393        42.35586        -0.44152
C         55.10383        44.43864         0.41725
C         54.04151        43.85199        -0.46568
C         55.02400        45.88930         0.77225
C         53.90109        46.75118         0.28613
C         54.95108        48.75250         1.36203
C         53.81576        48.10377         0.63192
C         54.97369        50.24450         1.53944
C         53.79269        51.04771         1.12483
C         53.69270        52.38664         1.40618
C         57.21370        23.03157         1.41943
C         56.22647        22.39772         0.74761
C         57.06342        24.44138         1.80047
C         56.00362        25.23159         1.13643
C         57.26586        27.35421         1.51732
C         56.08629        26.62781         1.09847
C         57.40763        28.83282         1.23411
C         56.20575        29.50943         0.63144
C         57.63541        31.61693         0.07963
C         56.32163        30.88483         0.04689
C         57.55987        33.13827         0.28072
C         56.44035        33.81045        -0.52865
C         57.85586        35.85603        -0.69916
C         56.55552        35.14945        -0.83910
C         57.90874        37.35999        -0.82750
C         56.62771        38.09923        -1.10491
C         57.73607        40.21413        -0.16789
C         56.48439        39.46616        -0.53672
C         57.76873        41.70093        -0.34854
C         56.46099        42.48908        -0.45630
C         57.66771        44.51751         0.51731
C         56.41158        43.64232         0.58836
C         57.60943        45.89386         0.88934
C         56.31031        46.53526         1.21400
C         57.53065        48.78186         1.38929
C         56.27203        48.02327         1.47548
C         57.46232        50.21320         1.47060
C         56.29477        50.90469         1.59115
C         59.57557        24.57483         2.51584
C         58.23536        25.20206         2.43639
C         60.15515        27.45691         1.71481
C         58.18917        26.66235         2.26600
C         60.09887        28.81366         1.18449
C         58.77393        29.51912         1.11615
C         60.12608        31.65389         0.70658
C         58.86531        30.89123         0.48812
C         60.11157        33.10081         0.54590
C         58.93101        33.79903         0.18598
C         60.21744        35.90780         0.10572
C         59.01006        35.17931        -0.07202
C         60.24835        37.36771         0.02054
C         59.07093        38.10209        -0.27140
C         60.21520        40.22144         0.25465
C         59.04560        39.50559        -0.12574
C         60.20528        41.66396         0.44634
C         59.00524        42.43397         0.05464
C         60.11988        44.55823         0.72733
C         58.90594        43.87314         0.40578
C         60.07501        45.99597         0.93129
C         58.79700        46.65166         1.04086
C         60.00073        48.77929         1.39524
C         58.76098        48.08113         1.28947
C         60.71194        25.07036         1.95642
C         60.87750        26.36812         1.32319
C         61.26128        29.50716         0.97240
C         61.28659        30.92898         0.81522
C         61.31728        33.82427         0.69054
C         61.36607        35.19280         0.50723
C         61.41515        38.09748         0.34959
C         61.40632        39.47718         0.43823
C         61.30987        42.39627         0.85970
C         61.28467        43.80460         0.94292
C         61.25339        46.74244         1.03800
C         61.21054        48.12651         1.26931
O         54.36030        41.76004         0.81237
O         34.39117        29.94003        -1.78503
O         44.15162        43.22779        -2.87141
O         23.34559        31.04255        -0.71798
O         47.41407        33.59392        -3.31462
O         29.64234        31.41081         1.10922
O         48.35757        28.94796        -2.61756
O         58.27561        36.51322        -1.95486
O         46.47286        33.36998         0.23918
O         31.75037        26.39222         2.30142
O         43.25003        54.10163         3.59734
O         42.35980        16.15305         1.57337
O         30.68748        35.53318         1.44575
O         33.34183        52.32006         1.01630
O         23.10666        36.77795        -2.42598
O         27.69637        32.21940        -1.83587
O         38.73281        17.13317        -0.89975
O         53.83113        44.38072        -1.80321
O         45.43997        23.61053         0.83141
O         46.06579        20.60077         0.92662
O         52.35701        46.82641        -1.68438
O         38.85655        42.40583         0.46085
O         24.82503        42.54988        -1.48672
O         28.83435        44.69791         1.14187
O         57.98716        29.58000         2.35239
O         57.18134        24.64376         3.26222
O         27.55697        27.59017        -0.78288
O         29.80208        28.87160        -1.40711
O         49.11874        22.64379         0.66052
O         32.44665        33.06497         1.03162
O         47.42222        36.71266        -3.17644
O         48.48915        50.13166         1.89573
O         40.06948        27.14192         1.89798
O         23.88153        27.66421         3.31558
O         58.51120        31.05660        -0.94200
O         53.05135        41.34115        -2.52542
O         40.11194        37.96682         1.19284
O         54.60409        49.34987         2.65921
O         56.85008        39.67568         0.87340
O         52.51928        22.58136        -2.18233
O         50.28449        29.25085         0.38446
O         28.02415        36.93408        -1.87852
O         30.09534        33.49410        -1.80718
O         45.46685        28.31103         0.91889
O         58.69084        42.11479        -1.39650
O         23.87999        43.88460         1.89349
O         54.54998        44.83903         1.70906
O         39.70035        35.64867        -1.58321
O         44.51513        50.94359        -0.82323
O         35.54463        23.99726        -0.66513
O         37.34467        24.81804         2.31969
O         41.93605        25.08586        -1.69694
O         46.97750        22.32530        -2.28750
O         37.26139        37.92977         1.51465
O         33.59369        40.26499         1.30508
O         28.17730        45.90133        -2.18358
O         24.74206        33.90700         1.11070
O         55.05288        35.22475        -2.77908
O         59.29521        27.30484         2.81996
O         41.87029        22.64426        -1.87589
O         31.95737        30.36858         1.17564
O         41.80975        34.63595         1.16846
O         35.92096        27.41247         2.04431
O         46.76707        25.03937        -2.23593
O         56.26017        47.04672         2.58056
O         49.59712        44.49150        -2.40113
O         55.84389        30.87337        -1.34662
O         29.49091        48.44001        -3.06901
O         28.32490        50.71447        -2.91483
O         51.54383        30.90370        -2.45204
O         41.94510        51.57079         2.73155
O         40.25065        54.13846         3.43298
O         50.19245        23.65072        -2.60237
O         33.27445        22.79839        -0.61157
O         53.77813        27.03704         1.70487
O         40.16211        20.32697         1.78744
O         52.32892        51.02839        -0.81986
O         52.27770        35.43926        -3.18767
O         34.68609        41.81918        -2.08120
O         40.70019        41.78810        -2.71386
O         51.04627        37.85723        -3.33965
O         34.20647        34.54496        -1.72749
O         51.37009        43.05376         0.35706
O         36.19713        55.39897        -0.55305
O         38.96575        51.68678         2.32618
O         27.60950        25.32549         3.11700
O         56.24450        38.03719        -2.50576
O         57.11854        33.31701         1.61213
O         48.05800        48.81669        -1.38352
O         35.32473        50.01554        -2.69147
O         39.22760        46.79999        -3.17705
H         38.47133        47.35185        -3.51344
O         56.43830        43.05741         1.89658
H         55.80216        43.55723         2.46034
O         46.47912        47.67566         1.72237
H         45.63372        47.25782         1.98975
O         40.99341        20.30550        -1.82260
H         41.41503        20.91779        -2.47126
O         31.56491        20.67921        -0.57927
H         32.18807        21.33013        -0.98781
O         47.55018        31.15662        -3.41265
H         47.52670        32.01759        -3.92384
O         49.24348        35.03517        -3.60531
H         48.66196        35.69632        -4.06133
O         38.27488        44.91380         0.54129
H         38.43036        44.03787         0.97546
O         53.22853        29.77900         1.75940
H         53.18900        28.87246         2.15175
O         49.76789        50.85924        -1.42544
H         50.59160        50.75933        -1.95408
O         35.31565        53.26017        -1.95265
H         35.91857        54.01543        -2.13353
O         47.81341        18.43075        -2.42187
H         48.60122        18.89934        -2.77190
O         44.52675        35.44916         1.12530
H         43.74150        35.09569         1.60825
O         56.40256        43.10451        -1.75286
H         57.30038        43.03257        -2.16018
O         43.02174        40.71880         0.59696
H         42.81490        39.92493         1.13858
O         38.73859        56.76945         0.37712
H         37.90943        56.50750        -0.08262
O         31.92241        47.83176        -3.41123
H         31.04732        47.70234        -3.84796
O         49.86006        31.83802         0.62190
H         49.79244        30.92105         0.98732
O         33.30655        24.29523         2.69799
H         33.10994        25.12769         3.18735
O         23.61404        46.32672         2.58165
H         24.06063        45.48072         2.83138
O         29.11522        39.60105         1.80593
H         29.97240        39.23245         2.11228
O         38.64979        43.72003        -2.94987
H         38.80988        44.58110        -3.39962
O         32.54535        31.67781        -2.26273
H         33.02376        30.94190        -2.71115
O         32.85391        20.69308         2.85049
H         33.61322        20.26885         3.30240
O         39.59796        22.70068         2.26928
H         40.14434        21.95740         2.61894
O         47.84674        44.05231         0.78990
H         47.09125        44.44653         1.27501
O         36.61153        20.83720        -1.11871
H         35.92043        21.45621        -1.44017
O         36.96536        48.21085        -3.32753
H         36.60453        49.06731        -3.66361
O         47.18125        26.39972         1.07216
H         46.92424        27.19367         1.59478
O         34.33909        34.47659         1.66873
H         33.47195        34.10673         1.96705
H         22.90582        23.86036         2.42265
H         20.83284        25.17153         2.32100
H         20.84490        27.59666         1.92966
H         21.04543        29.63997         2.28650
H         20.92843        31.92801         1.44091
H         21.03332        32.89504        -1.32518
H         21.20849        35.06524        -2.57139
H         21.01073        38.23935        -2.17560
H         20.84220        40.43815        -1.01984
H         20.79621        42.15495         0.10297
H         20.85197        44.50734         0.68707
H         20.99704        46.41917         1.56908
H         22.77360        49.85812        -0.27156
H         20.81802        48.68167         0.61863
H         24.58139        22.80348         2.36210
H         24.14774        50.64368        -1.24131
H         26.62162        21.52887         2.18921
H         25.99468        51.66635        -2.52657
H         30.24583        19.20515         1.44114
H         28.29038        20.48538         2.02159
H         30.35767        54.17202        -0.81069
H         28.50033        53.18684        -2.13174
H         31.99222        18.23542         1.55978
H         31.80279        55.01682         0.09468
H         34.03744        17.01402         1.24085
H         33.89161        56.20336         0.38452
H         37.73210        14.80527         1.23601
H         35.71042        16.10323         1.45691
H         37.33224        57.45320         3.11434
H         35.26203        56.38701         2.22450
H         39.39755        13.75802         0.43029
H         38.95348        58.79634         2.50532
H         43.62663        13.72439        -0.32752
H         41.50788        12.54943         0.01922
H         43.20275        58.85610         3.13519
H         41.02705        60.01979         3.14957
H         45.30371        14.73156        -0.35243
H         44.85063        58.05822         2.58421
H         47.37149        15.96106        -0.81910
H         46.97808        56.97427         2.19735
H         51.14733        18.17100        -0.12505
H         49.07418        16.92175        -0.19001
H         50.78506        55.16872         1.28165
H         48.62450        56.20389         1.71915
H         52.83888        19.10307        -0.45352
H         52.44144        54.12680         1.69577
H         54.82603        20.35971        -0.01994
H         54.54140        52.91312         1.86442
H         58.10451        22.48219         1.75286
H         56.34946        21.33367         0.50736
H         58.39543        50.79173         1.44622
H         56.32962        52.00207         1.63279
H         59.61358        23.57326         2.96896
H         60.00651        49.85752         1.59763
H         61.60032        24.41790         1.95350
H         61.64088        26.47062         0.53929
H         62.21973        28.97541         1.06317
H         62.26875        31.41803         0.83779
H         62.23901        33.30561         0.98366
H         62.32203        35.70741         0.66516
H         62.35968        37.57438         0.54482
H         62.34197        39.99387         0.68909
H         62.24587        41.88745         1.12690
H         62.20706        44.31022         1.25869
H         62.23047        46.25287         0.93266
H         62.14902        48.69115         1.35424
