         276
 CSIRO Nanostructure Databank - Neutral Graphene Oxide Data Set
C        -11.48765         0.68106         0.61476
C        -10.26626         1.52744         0.79268
C         -8.98456         0.78365         0.76871
C         -7.69433         1.48604         0.53307
C         -6.51144         0.85324         1.22396
C         -5.24836         1.70008         1.39708
C         -3.96755         0.84899         1.62539
C         -2.65164         1.65250         1.56344
C         -1.39066         0.77174         1.39646
C         -0.09718         1.60270         1.46107
C          1.24286         0.80084         1.60560
C          2.54312         1.33412         1.06020
C          3.90576         0.63539         1.29929
C          5.06056         1.13609         0.39132
C          6.34732         0.31840         0.37880
C          7.64469         1.18214         0.36539
C          8.94372         0.50721         0.62199
C         10.26229         1.34694         0.87748
C         11.40715         0.44625         0.42249
C        -10.30861         3.05338         0.58420
C         -8.96871         3.72360         0.22670
C         -7.71753         2.92300         0.18672
C         -6.39652         3.61726         0.18768
C         -5.18745         2.70293         0.24683
C         -3.88341         3.21241        -0.25343
C         -2.63945         2.82903         0.50823
C         -1.33012         3.35591        -0.00184
C         -0.08499         2.55022         0.25965
C          1.20116         3.02880        -0.32927
C          2.54145         2.32666        -0.09586
C          3.71041         3.28844         0.20597
C          5.06097         2.61599         0.20093
C          6.31135         3.41186         0.41671
C          7.60160         2.68011         0.55391
C          8.93827         3.50739         0.42007
C         10.04727         2.56952         0.03937
C         -8.90140         5.04779        -0.03706
C         -7.69545         5.76786        -0.63135
C         -6.36819         4.98005        -0.40846
C         -5.13156         5.34418        -1.18958
C         -3.88664         4.48558        -1.10144
C         -2.54779         5.13727        -1.40658
C         -1.28910         4.32477        -1.15880
C          0.00549         4.97682        -1.54476
C          1.29546         4.32908        -1.08909
C          2.54982         5.14689        -1.05228
C          3.67356         4.73463        -0.15164
C          4.95008         5.54712        -0.12354
C          6.28793         4.88988         0.14207
C          7.51775         5.55824        -0.35990
C          8.74054         4.66727        -0.60379
C         -7.43548         7.15273         0.00422
C         -6.52149         7.99610        -0.54808
C         -4.93759         6.75710        -1.59569
C         -3.74057         7.35924        -1.65354
C         -2.46527         6.63963        -1.51291
C         -1.18409         7.32900        -1.12219
C          0.02178         6.50668        -1.44413
C          1.25279         7.24539        -1.87605
C          2.55116         6.53544        -1.64166
C          3.82253         7.33150        -1.64141
C          4.93960         6.92528        -0.72956
C          6.24097         7.67976        -0.85081
C          7.48441         6.86564        -0.74573
C         -5.92628         9.19018         0.06873
C         -4.69991         9.78789        -0.06373
C         -3.51045         9.42705        -0.85257
C         -2.22206         9.62791        -0.46284
C         -0.96073         8.88950        -0.94401
C         -0.14048         9.38036        -2.16933
C          1.24863         8.72562        -2.07217
C          2.42447         9.38973        -2.24275
C          3.77227         8.75992        -2.11071
C          5.02596         9.55806        -1.94730
C          6.19530         8.98400        -1.58297
C        -11.43221        -0.64222         0.37170
C        -10.18282        -1.34025        -0.13330
C         -8.91148        -0.64847         0.33216
C         -7.67193        -1.38427         0.70475
C         -6.53256        -0.63354         1.35822
C         -5.26369        -1.41479         1.60817
C         -3.97902        -0.64887         1.84767
C         -2.68472        -1.45808         1.91525
C         -1.38392        -0.70758         1.65774
C         -0.08779        -1.42107         2.04085
C          1.20350        -0.57677         2.28838
C          2.53036        -1.44671         2.11430
C          3.76921        -0.87194         1.44799
C          5.05047        -1.65000         1.40143
C          6.35156        -0.87541         1.31937
C          7.64671        -1.60307         1.40772
C          8.96355        -0.89290         1.16816
C         10.24854        -1.64853         1.10813
C         11.38985        -0.89789         0.51045
C        -10.07168        -2.85009         0.00149
C         -8.93335        -3.53003         0.27375
C         -7.71974        -2.89209         0.95220
C         -6.36875        -3.45739         0.46699
C         -5.20451        -2.85969         1.21445
C         -3.93492        -3.68391         1.32612
C         -2.65862        -2.95659         1.71630
C         -1.32670        -3.56134         1.20111
C         -0.07049        -2.92579         1.86334
C          1.26080        -3.62022         1.63533
C          2.52905        -2.96468         2.15055
C          3.83612        -3.84476         2.20263
C          5.13534        -3.00892         2.03394
C          6.43898        -3.74581         1.94389
C          7.61579        -3.12865         1.10808
C          8.99207        -3.80225         1.25156
C         10.16528        -3.13384         1.13157
C         -8.83427        -4.98441        -0.03110
C         -7.50731        -5.59821        -0.35100
C         -6.24621        -4.78168        -0.19020
C         -4.89843        -5.51468        -0.29123
C         -3.89590        -5.08541         0.78939
C         -2.58626        -5.86415         0.88907
C         -1.32174        -5.10561         1.23763
C          0.00692        -5.78902         1.00362
C          1.29827        -5.02103         1.09398
C          2.58554        -5.89236         1.24579
C          3.81171        -4.98238         1.17954
C          5.13759        -5.54214         0.74105
C          6.20621        -5.24041         1.78543
C          8.20442        -5.86456         0.22399
C          8.92340        -5.28274         1.17770
C         -7.35777        -6.74363        -1.28148
C         -6.16917        -7.39987        -1.33152
C         -5.11977        -7.05389        -0.27595
C         -3.78574        -7.78057        -0.46792
C         -2.54731        -7.24034         0.23441
C         -1.20190        -7.80615        -0.18636
C          0.05635        -7.09093         0.26063
C          1.36548        -7.53226        -0.35196
C          2.65726        -7.06059         0.22907
C          3.95349        -7.45384        -0.45785
C          5.23670        -6.74612        -0.16040
C          6.29384        -6.62322        -1.27854
C          7.74834        -6.51300        -0.82984
C         -5.90211        -8.34625        -2.40320
C         -4.69058        -8.90509        -2.60191
C         -3.58517        -8.71491        -1.63731
C         -2.21420        -9.05824        -2.06929
C         -1.10823        -8.69919        -1.37865
C          0.25357        -9.21305        -1.80906
C          1.25687        -7.98742        -1.80045
C          2.56641        -8.18208        -2.45500
C          3.81128        -8.41577        -1.64847
C          5.05350        -8.46653        -2.49770
C          6.14670        -7.72348        -2.30518
O         -6.91087         0.22012         2.47646
O          4.44255        -4.49664        -0.02288
O          3.32804         4.26940         1.19593
O          4.95947        -8.00240         0.47814
O         -4.08009         0.26201         2.96788
O          4.16441        -1.60636         0.25174
O          5.01093         1.72371        -0.95394
O         -2.66763        -2.37894         3.03500
O         -7.59229         1.87683        -0.86542
O          1.92034         6.53121        -2.95289
O         -0.43935         6.69286        -0.03658
O         -4.77630         4.38504        -2.24164
O         -9.59851         1.09944         2.04752
O         -2.00311         4.00278         1.11019
O          6.88291         3.08070         1.74280
O          2.07833         1.77434         2.33962
O         -3.91665        -9.20828        -0.28767
O          6.57282        -6.09306         2.56196
O         -4.58882         2.12825        -0.93971
O         -6.18008         4.78639         1.03492
O          8.48432         0.71246        -0.73771
O          2.31754         4.17251        -2.13387
O         -6.22755        -3.53697        -0.98369
O         -4.36419        -4.84067         2.12936
O          6.04013        -3.14769         3.18067
O          2.60441        -2.18905         3.37551
O          7.05350        -0.96732         2.57995
O         -0.24647        -2.34858         3.16342
O         -0.66971         4.07619        -2.45842
O         -7.84839        -0.90753        -0.66134
O         -6.04306         7.60915        -1.82869
O         -2.08343        -5.77829         2.25364
O          5.56246         5.58761         1.19233
O         -3.71079         8.70544        -2.04127
O         -1.91266        -8.30123         0.98615
O          0.13844        -7.04649         1.71444
O         -5.58559        -7.43700         1.02030
O         -1.39100        -0.16474         0.28849
O          4.15538         7.64931        -3.02476
O          7.23125        -3.31780        -0.20204
O          2.05033        -8.35074         0.64532
O          5.34502         7.86393         0.30993
O         -5.56016        -2.46348         2.57475
O          0.34845         2.02398        -1.00713
O         -2.39723         5.76746        -2.70335
O          1.41190        -3.89792         0.17448
O          9.78841        -1.00905         2.35683
O         -7.82658        -3.12243         2.32030
O          4.41726         1.07796         2.57834
H          3.65352         1.39634         3.12099
O         -0.01861         9.07122         0.12698
H         -0.26847         8.48630         0.87529
O          0.53307        -6.93750        -2.50959
H          1.16719        -6.41530        -3.04509
O         -8.18370        -5.85428         0.93146
H         -6.49789        -7.10879         1.17213
O          3.60194        -9.76209        -1.12922
H          3.01514        -9.68962        -0.33611
O          2.72595         1.53425        -1.27082
H          2.56813         2.10483        -2.05635
O          2.59522        -6.44561         2.55667
H          1.94069        -7.18297         2.57765
O         -4.28801        -5.19490        -1.55866
H         -4.68800        -4.34938        -1.87337
O          6.33345        -0.39182        -0.87393
H          6.09108         0.23520        -1.59007
O         10.38245         1.63712         2.25941
H         10.01129         2.53729         2.42555
O         -7.99704         5.86753        -2.02333
H         -7.37400         6.51389        -2.43248
O        -10.25557        -1.14481        -1.57901
H         -9.33187        -1.20425        -1.91748
O         -1.27386        -3.20119        -0.19990
H         -0.34723        -3.32707        -0.51971
O         -5.40966         2.47247         2.60106
H         -5.67857         1.83683         3.30545
O         -0.79270         8.94409        -3.35194
H         -0.23119         9.14174        -4.12849
O          8.56537         4.04297        -1.88029
H          8.57629         4.72857        -2.57891
O          3.85343        -4.43271         3.49382
H          3.91795        -3.71725         4.16210
O          1.12875        -0.21863         3.67630
H          1.09860        -1.05583         4.19557
O        -11.26341         3.35826        -0.43493
H        -10.89167         3.10062        -1.30364
O         -2.56638         2.26359         2.85213
H         -3.44923         2.64752         3.06340
O         -0.16146         2.46478         2.59308
H         -0.04392         1.93682         3.41081
O          0.70208       -10.22246        -0.93020
H          0.44734       -10.00116        -0.00957
O          9.21208         4.07274         1.71268
H          8.34816         4.17202         2.18485
O          6.01838        -5.38509        -1.97178
H          6.37957        -4.62897        -1.44025
H         12.25737        -1.47665         0.15733
H         12.29585         0.94283         0.00317
H         10.26939         2.49339        -1.03856
H          9.66507         5.30597        -0.61618
H          8.40474         7.32061        -1.14831
H          7.12619         9.57026        -1.62584
H          5.02397        10.58814        -2.33586
H          2.40223        10.48161        -2.39358
H         -0.03259        10.50076        -2.15635
H         -2.05434        10.21694         0.45289
H         -4.51359        10.61329         0.64474
H         -6.55943         9.61929         0.86427
H         -7.84954         7.36201         1.00148
H         -9.83019         5.63901         0.00178
H        -10.69490         3.51813         1.52942
H        -12.45714         1.15246         0.83840
H        -12.36965        -1.21813         0.33403
H        -10.91162        -3.41460        -0.43973
H         -9.73403        -5.43690        -0.50504
H         -8.16942        -6.98712        -1.98422
H         -6.71774        -8.53111        -3.11843
H         -4.51233        -9.55502        -3.47136
H         -2.10859        -9.68007        -2.97265
H          0.20346        -9.63845        -2.84144
H          2.56453        -8.43797        -3.52680
H          5.04732        -9.22514        -3.29551
H          7.00370        -7.85942        -2.98405
H          8.48144        -6.77269        -1.61902
H          9.33197        -5.87981         2.01321
H         11.10808        -3.69717         1.05205
