         576
 CSIRO Nanostructure Databank - Neutral Graphene Oxide Data Set
C          5.99100        18.98749         1.06826
C          6.01251        20.38374         1.15576
C          4.82086        21.14876         1.46850
C          6.08983        23.25365         1.48947
C          4.84880        22.50402         1.58401
C          6.14762        24.59978         1.76386
C          8.33629        14.65278         0.39880
C          8.33758        16.06400         0.37225
C          7.19427        16.82609         0.73201
C          8.35379        18.98658         0.43441
C          7.16654        18.24632         0.75661
C          8.37189        20.37670         0.46042
C          7.22735        21.10336         0.90797
C          8.51511        23.21782         1.01760
C          7.29637        22.51624         1.13609
C          8.58983        24.61809         1.20868
C          7.46671        25.31131         1.94165
C          8.53962        27.53248         1.42144
C          7.43066        26.81060         1.73631
C          8.66881        28.98475         1.53276
C         10.85634        10.40039         0.35769
C         10.79750        11.78691         0.07860
C          9.56130        12.50614         0.17782
C         10.63883        14.61792        -0.53542
C          9.48280        13.89518         0.04100
C         10.69190        16.08413        -0.40031
C          9.56633        16.75565         0.00469
C         10.82693        18.96859        -0.16515
C          9.60885        18.22275         0.23265
C         10.80889        20.41817        -0.20490
C          9.54082        21.18888        -0.06957
C         10.92124        23.27399         0.24472
C          9.78913        22.44345         0.80355
C         10.85767        24.67283         0.25115
C          9.73318        25.33586         0.81501
C         11.05078        27.54795         0.72664
C          9.80698        26.79175         1.09993
C         11.14488        29.05400         0.76986
C          9.32192        29.75011         0.51468
C         10.79639        31.88744         0.36932
C          9.61166        31.19136         0.72222
C         10.88552        33.30429         0.72049
C         13.24339         6.11115         1.40363
C         12.91608         7.52752         1.40520
C         12.01994         8.25610         0.67311
C         13.29257        10.47815         0.48778
C         12.06824         9.72178         0.55726
C         13.25010        11.81540         0.01449
C         12.02519        12.46862        -0.19395
C         13.22042        14.64753        -0.72864
C         11.97265        13.86371        -0.67042
C         13.23364        16.03208        -0.80401
C         11.91000        16.77828        -0.99432
C         13.17518        18.93095        -0.86194
C         12.02450        18.24976        -0.64339
C         13.15239        20.44317        -1.01830
C         12.14488        21.07257        -0.04664
C         13.27118        23.25611        -0.48189
C         12.09794        22.57636        -0.16669
C         13.31549        24.73221        -0.16412
C         11.97705        25.43242        -0.44389
C         13.24174        27.62027        -0.43917
C         12.12060        26.88582        -0.04522
C         13.26296        29.03687        -0.41076
C         11.92360        29.74234        -0.36243
C         13.14371        31.99667        -0.48822
C         11.94579        31.23087        -0.14154
C         13.18906        33.45656        -0.13932
C         12.02002        34.06003         0.54187
C         13.31421        36.17242         0.68554
C         12.18733        35.43323         0.97581
C         13.49124        37.48880         1.24219
C         15.78454         6.34060         1.45960
C         14.51543         5.62875         1.56929
C         15.83300         7.76871         1.17379
C         14.75878         8.64354         1.38602
C         15.77316        10.42289         0.12668
C         14.61241         9.87784         0.69856
C         15.69711        11.67167        -0.71659
C         14.56367        12.56699        -0.15893
C         15.76455        14.60674        -0.91573
C         14.46387        13.84447        -1.00089
C         15.72771        16.02803        -0.97655
C         14.46962        16.72761        -0.91664
C         15.66895        18.94229        -1.27648
C         14.48742        18.21649        -0.67295
C         15.66282        20.41972        -1.10124
C         14.50222        21.11771        -0.91166
C         15.68937        23.30426        -0.80352
C         14.49282        22.57048        -0.77105
C         15.69134        24.74874        -0.81883
C         14.51124        25.44683        -0.73718
C         15.68384        27.64072        -1.26948
C         14.35143        26.89015        -1.17949
C         15.74562        29.07310        -0.91880
C         14.44385        29.78066        -0.83906
C         15.71688        31.98737        -0.51111
C         14.44065        31.29489        -0.77629
C         15.75310        33.36416        -0.26093
C         14.51928        34.12276         0.16972
C         15.74888        36.37571        -0.36815
C         14.36994        35.60061        -0.26794
C         15.84713        37.61688         0.51311
C         14.67877        38.15372         1.17790
C         18.21695         6.17051         0.96365
C         16.96259         5.59778         1.36247
C         18.18972         7.55147         0.51912
C         16.99575         8.32413         0.56986
C         18.13876        10.26202        -0.48839
C         16.97914         9.68666         0.12825
C         18.20051        11.70672        -0.75745
C         17.02445        12.43995        -0.76085
C         18.20935        14.65334        -0.77741
C         16.99845        13.90449        -0.84086
C         18.19901        16.08219        -0.83768
C         16.95964        16.74787        -0.98003
C         18.18127        18.97980        -0.77258
C         16.97029        18.20358        -1.25197
C         18.24955        20.39966        -1.27730
C         16.94112        21.14339        -1.25981
C         18.27204        23.32063        -1.05237
C         16.96417        22.58096        -0.86960
C         18.21474        24.75280        -1.23019
C         17.01739        25.47714        -0.70874
C         18.23869        27.65522        -1.04865
C         16.97875        26.89710        -1.21830
C         18.20886        29.04470        -0.82054
C         16.93135        29.72960        -0.71148
C         18.22052        31.82011         0.02217
C         16.87589        31.10033        -0.06701
C         18.24588        33.35124         0.00337
C         16.97357        34.08259        -0.15171
C         18.22763        36.17460        -0.10855
C         17.00669        35.51062        -0.13063
C         18.23804        37.68710        -0.16133
C         17.05147        38.24743         0.58268
C         20.66532         6.04586         0.53021
C         19.41002         5.43117         0.84184
C         20.64417         7.52553         0.35691
C         19.33781         8.13132        -0.03957
C         21.07355        10.47792        -0.63885
C         19.20591         9.37633        -0.68837
C         20.78615        11.77861        -0.37758
C         19.52002        12.42174        -0.86513
C         20.72856        14.66088        -0.34097
C         19.50378        13.93612        -0.79878
C         20.55495        16.13547        -0.03155
C         19.44221        16.83907        -0.76170
C         20.69099        19.00485        -0.67680
C         19.49676        18.24459        -0.83610
C         20.66054        20.44582        -0.67379
C         19.50139        21.12894        -1.01081
C         20.71431        23.37512        -0.86285
C         19.54067        22.57019        -1.46509
C         20.75439        24.75793        -1.46454
C         19.43152        25.51116        -1.51909
C         20.68541        27.62067        -1.04817
C         19.45064        26.95715        -1.22058
C         20.65964        29.00732        -0.73619
C         19.44888        29.73143        -0.64683
C         20.68404        31.85389        -0.21421
C         19.47483        31.13611        -0.30577
C         20.70348        33.30521        -0.13768
C         19.51855        34.02403        -0.22372
C         20.76393        36.17387         0.03259
C         19.52000        35.49965        -0.50646
C         20.76183        37.60111         0.22161
C         19.55245        38.31527         0.19173
C         23.17363         6.06211         0.49101
C         21.89552         5.38769         0.52085
C         23.21875         7.52234         0.59096
C         21.93765         8.27097         0.42072
C         23.17192        10.37679         0.52661
C         22.10153         9.69983         0.04000
C         23.17234        11.83284         0.23413
C         21.83469        12.54276         0.40749
C         23.13633        14.77343         0.23100
C         21.85375        14.02036         0.07182
C         23.11233        16.25305         0.43110
C         21.85792        16.94680         0.04348
C         23.31418        18.91072        -0.68506
C         21.97403        18.19251        -0.82533
C         23.45132        20.18764        -1.45371
C         21.83574        21.29616        -0.23718
C         23.22195        23.27486        -1.21040
C         22.03535        22.63918        -0.90493
C         23.25485        24.75228        -1.36630
C         22.00539        25.50939        -1.28487
C         23.18693        27.65226        -1.26688
C         21.93805        26.88401        -1.18292
C         23.21550        28.97596        -0.59665
C         21.90573        29.69356        -0.35872
C         23.16016        31.83717        -0.23131
C         21.93340        31.15819        -0.27379
C         23.16851        33.27869        -0.05097
C         21.97257        33.99417        -0.02058
C         23.14466        36.11332         0.59431
C         21.95908        35.44611         0.19683
C         23.21026        37.55460         0.65040
C         21.99679        38.26822         0.46343
C         25.65621         6.04436         0.62260
C         24.38675         5.38415         0.41502
C         25.65139         7.44159         1.24381
C         24.37177         8.19101         0.90229
C         25.68848        10.42123         0.92062
C         24.37152         9.67304         1.02014
C         25.72094        11.85859         0.54692
C         24.45756        12.56259         0.24313
C         25.73623        14.73720         0.52686
C         24.44897        14.05874         0.24699
C         25.73457        16.21977         0.58557
C         24.43515        16.97104         0.40483
C         25.70515        19.15032         0.05971
C         24.42971        18.35241        -0.13896
C         25.74281        20.46786        -0.69154
C         24.54836        21.10356        -1.08072
C         25.71631        23.24014        -1.36323
C         24.51720        22.55118        -1.26539
C         25.73046        24.68236        -1.83153
C         24.45621        25.42840        -1.48110
C         25.70737        27.63940        -1.04312
C         24.48999        26.91045        -1.47463
C         25.67576        28.99560        -0.82495
C         24.44844        29.76432        -0.67574
C         25.64437        31.96183        -0.57010
C         24.40492        31.12076        -0.39332
C         25.60567        33.24204         0.24885
C         24.42874        33.94260         0.26362
C         25.65549        36.06687         1.12841
C         24.36902        35.32701         0.81525
C         25.62028        37.58747         1.50979
C         24.43819        38.24813         0.81550
C         28.11123         6.03111         1.07921
C         26.85716         5.39682         0.50852
C         28.12801         7.52467         0.84304
C         26.92311         8.22728         0.91562
C         28.16103        10.34249         0.70352
C         26.94423         9.64324         0.82069
C         28.16736        11.76438         0.19348
C         26.89331        12.54567         0.41935
C         28.14203        14.69753         0.02649
C         26.90065        14.01083         0.34049
C         28.18285        16.06940        -0.12943
C         27.07844        16.93276         0.44902
C         28.12564        18.96691        -0.47224
C         26.96678        18.32856        -0.14534
C         28.19056        20.40975        -0.68101
C         26.97430        21.11413        -0.87383
C         28.25896        23.23606        -1.07876
C         27.01615        22.47318        -1.51957
C         28.30880        24.68646        -1.32073
C         27.02675        25.46736        -1.51110
C         28.20468        27.51006        -0.40126
C         27.01043        26.92354        -1.08721
C         28.08877        28.89418         0.15961
C         26.86608        29.66707        -0.24317
C         28.21301        31.81704        -0.06081
C         26.94157        31.14966        -0.42206
C         28.18001        33.19700         0.47270
C         26.86772        33.86970         0.72798
C         28.05192        35.95257         0.33048
C         26.89124        35.35566         0.71460
C         28.14168        38.05900         0.97350
C         26.94871        38.34962         1.60807
C         30.58819         6.07089         0.56444
C         29.39740         5.37280         0.66434
C         30.59932         7.50164         0.70660
C         29.37316         8.21952         0.74969
C         30.65675        10.37579         0.86365
C         29.38226         9.64543         0.73807
C         30.68451        11.91296         0.69344
C         29.41012        12.56522         0.44381
C         30.66862        14.61001        -0.40192
C         29.36866        13.89917        -0.15946
C         30.63837        16.07986        -0.48359
C         29.41316        16.74226        -0.44777
C         30.67389        18.94615        -0.46121
C         29.37132        18.19394        -0.65476
C         30.62545        20.40310        -0.22083
C         29.41642        21.10553        -0.58870
C         30.63829        23.26821        -0.38263
C         29.40780        22.55683        -0.68076
C         30.70621        24.65295        -0.37682
C         29.54604        25.44239        -0.86211
C         30.61795        27.45448         0.20980
C         29.39518        26.83996        -0.37698
C         30.63628        28.89438         0.61079
C         29.33165        29.66112         0.72394
C         30.63280        31.78157         0.27748
C         29.45282        31.07846         0.24926
C         30.63584        33.25057         0.22433
C         29.45028        33.93665         0.37889
C         30.60597        36.20625         0.50054
C         29.38421        35.37716         0.77666
C         30.62918        37.56099         0.86538
C         29.49739        38.34354         1.30847
C         33.02246         6.04052         0.09565
C         31.83186         5.40070         0.18439
C         33.17861         7.43744         0.54648
C         31.88135         8.21307         0.81589
C         33.13556        10.36671         0.53270
C         31.93565         9.68011         0.67592
C         33.17003        11.82397         0.30522
C         31.96976        12.52439         0.30414
C         33.11440        14.58111        -0.65811
C         31.95654        14.02336         0.16063
C         33.16192        16.07969        -0.42056
C         31.89417        16.78945        -0.36010
C         33.03627        18.84839         0.38320
C         31.85635        18.16362        -0.12334
C         32.98106        20.33491         0.63368
C         31.75615        21.06096         0.21637
C         33.14759        23.22160         0.17314
C         31.86392        22.49885        -0.09287
C         33.10951        24.69181         0.20737
C         31.92895        25.34611        -0.06024
C         33.12376        27.46467         0.62056
C         31.95421        26.84449        -0.18755
C         33.11046        28.94711         0.35371
C         31.92561        29.64100         0.43912
C         33.08426        31.82623         0.24779
C         31.90618        31.08865         0.32628
C         33.08013        33.27454         0.26215
C         31.88163        33.97705         0.21707
C         33.14720        36.12019         0.49133
C         31.85919        35.48473         0.01169
C         33.10998        37.53156         0.79850
C         31.93804        38.20744         0.95596
C         34.38133         8.24795         0.29250
C         35.64918        10.35489         0.74129
C         34.37588         9.60741         0.44592
C         35.77192        11.74790         0.09005
C         34.43327        12.51580        -0.00633
C         35.58548        14.67547        -0.63717
C         34.42518        13.86763        -0.38168
C         35.65317        16.08181        -0.44519
C         34.36221        16.76071        -0.35588
C         35.53828        19.00462        -0.10114
C         34.34947        18.14405         0.14355
C         35.53666        20.42144         0.38853
C         34.26436        21.06815         0.90468
C         35.58621        23.25145         0.69763
C         34.25578        22.59960         1.00692
C         35.60093        24.62299         0.44441
C         34.37915        25.38497         0.32959
C         35.66083        27.49288         0.19094
C         34.42363        26.76938         0.30088
C         35.64831        28.90833         0.09377
C         34.36109        29.61594        -0.02075
C         35.64338        31.83661         0.20375
C         34.35830        31.13903        -0.02639
C         35.56408        33.26581         0.37577
C         34.36338        33.96601         0.35116
C         34.31688        35.40055         0.53834
C         36.80319        12.56108         0.86570
C         38.03124        14.80682         0.91490
C         37.26778        13.75210         0.35536
C         38.04820        16.16044         0.41678
C         36.87657        16.78362        -0.17412
C         38.01116        19.12868        -0.21213
C         36.81649        18.28166        -0.54627
C         38.07548        20.39766         0.43287
C         36.82452        21.11551         0.64642
C         38.04278        23.25044         1.07009
C         36.79630        22.48875         0.85669
C         37.96025        24.68717         0.91686
C         36.85026        25.36799         0.41922
C         38.07418        27.50760        -0.45931
C         36.88610        26.77240         0.15471
C         38.08623        28.96482        -0.03214
C         36.88125        29.65849         0.07621
C         36.82151        31.11012         0.21782
C         39.24231        16.85502         0.81113
C         40.67525        18.91817         1.01192
C         39.77375        18.09871         0.37471
C         40.70627        20.41553         0.80075
C         39.32393        21.06444         0.58326
C         40.54203        23.23963         0.12431
C         39.39579        22.52857         0.81048
C         40.66315        24.58329        -0.17594
C         39.75753        25.66567         0.19671
C         39.40549        26.76030        -0.53379
C         41.62650        21.02199        -0.24417
C         41.53578        22.34758        -0.49352
O         28.01865        37.24055        -0.17718
O         27.25480        26.52169        -2.49386
O         30.15137        18.63067        -1.80510
O         15.86768        36.80827        -1.72300
O         20.13448        25.03953        -2.73774
O         16.36649        27.19806        -2.51084
O         35.29195        20.10290        -1.05042
O         32.69457         7.66279         1.91219
O         30.70623        11.26083         2.03158
O         27.87253        31.57686        -1.48703
O         21.08475         8.17838         1.63419
O         32.93415        22.66538        -1.15325
O         38.96235        22.89150         2.15319
O         23.80062        27.59780        -2.58980
O         11.08032        14.08545        -1.81512
O         24.95314        35.32111         2.18134
O         39.16517        18.65621        -0.79646
O         17.61472        20.79119        -2.53465
O         20.26142         9.76329        -1.52107
O         22.30154        16.95430         1.43563
O         10.87025        27.05507         2.11651
O         33.50999        20.53573         2.02141
O         22.73323        20.37184        -2.45054
O         23.92022        14.59220        -1.02900
O         12.92859        33.06867        -1.50527
O         29.31943        25.16030        -2.28272
O         11.68426        16.75702        -2.38727
O         17.82008        22.86627         0.30904
O         16.29036        18.50412        -2.52107
O         33.75608        18.18212         1.47443
O         18.29470        32.56899         1.28194
O         39.03988        25.41713         1.39507
O         22.61393        28.97905         0.73338
O         19.69840        13.21489        -2.07939
O         25.03364        16.80920         1.75309
O         10.58196        18.53307         1.31669
O         22.43684        21.01663         0.79609
O         27.56525        33.20996         1.84623
O         23.86768        12.05916        -1.02752
O         24.99237        10.23192         2.21242
O         30.02287        13.93329        -1.51876
O         30.56402        27.81502         1.63080
O         14.30406        30.60323        -2.08159
O         13.74573         8.27580         2.27502
O         36.79209        14.05838        -0.96366
O         26.99815        29.11985         1.11558
O         25.73330         7.25312         2.65444
O         34.29160        30.38318        -1.28404
O         25.56281        32.41686        -1.95360
H         26.47911        32.39889        -2.32196
O         16.46870        30.80649         1.31572
H         16.95930        31.44816         1.88727
O         25.72093        24.58336        -3.29465
H         26.00420        25.46332        -3.63950
O         10.21270        21.94027         2.11283
H         10.21755        22.69838         2.73630
O         19.99207        16.06574         1.32905
H         20.73235        16.29767         1.94648
O         17.94725        19.16447         0.66465
H         18.01370        18.28874         1.10382
O         27.18594        22.24791        -2.96179
H         26.81719        23.03920        -3.42801
O         27.57025        17.14291         1.81254
H         26.78641        17.32549         2.38021
O         28.01835         5.86218         2.53163
H         27.17542         6.35376         2.80756
O         25.13177        37.68017         2.88378
H         24.66586        36.82668         3.07612
O         21.95805        17.68958        -2.18926
H         22.06724        18.47662        -2.77688
O          7.79368        25.13037         3.37770
H          7.07369        25.54874         3.89593
O         11.32432        29.49435        -1.67145
H         11.96661        29.83862        -2.33265
O         12.64114        20.73321        -2.34562
H         13.13761        20.19379        -2.99706
O         20.42669        23.61442         0.54089
H         20.46219        22.76323         1.02848
O         11.66011        25.34623        -1.85147
H         12.33276        25.87835        -2.35012
O         29.27277        35.36964         2.24967
H         28.65184        34.63528         2.49273
O         13.48779        24.80929         1.28984
H         14.34781        24.39444         1.51457
O         17.22204        25.60209         0.74476
H         17.49035        24.70415         1.06118
O          9.02837        29.29730        -0.75130
H          9.54940        29.79111        -1.42658
O         14.72554        18.34913         0.78561
H         14.04537        18.95635         1.16140
O         14.65942        34.14585         1.62223
H         14.92569        33.25380         1.92991
O         33.97417        22.96958         2.37891
H         33.61655        22.16748         2.83112
O         21.54815        12.48396         1.83344
H         20.67557        12.89877         1.99763
O         18.12350        38.00892        -1.58931
H         17.19524        37.64681        -1.85642
O         28.20165        11.54683        -1.27795
H         28.39927        12.40549        -1.71569
O         13.76106        35.61480        -1.55928
H         14.38909        36.11678        -2.14919
O         36.77298        18.25089        -2.00343
H         36.41098        19.11986        -2.29636
O         32.19228        27.17209        -1.57659
H         31.63632        26.59141        -2.13938
O         19.57729        35.67279        -1.96735
H         19.18789        36.56735        -2.16001
O         25.68020        19.54297         1.47124
H         25.34139        18.77103         1.98250
O          9.13505        21.65243        -1.39415
H          9.93528        21.95184        -1.87760
O         13.84912        26.80165        -2.55469
H         14.64287        26.71212        -3.13656
O         33.01100        27.21489         2.03939
H         32.12843        27.53357         2.34772
O         19.68698        22.54282        -2.88946
H         19.00601        21.92761        -3.25133
O         12.61484        20.73443         1.29469
H         11.87676        20.96684         1.91425
O         32.09729        14.54887         1.50903
H         31.56260        14.00041         2.12149
O         15.40067        11.18121        -2.04075
H         15.18187        11.94928        -2.61809
O         11.56670        29.48466         1.97763
H         11.37300        28.76456         2.63248
O         36.21548        11.49166        -1.25998
H         36.50729        12.35348        -1.64157
O         37.70897        27.56210        -1.89781
H         36.88320        28.08858        -1.97803
O         32.80538        14.34031        -2.05211
H         33.50209        14.75059        -2.60499
O         14.25079        13.48178        -2.40594
H         13.84358        14.24597        -2.87084
O         14.96895        13.01405         1.15999
H         14.99343        12.23273         1.75243
O         35.69890        10.47041         2.17684
H         34.78438        10.52479         2.52397
O         29.09884        29.83694         2.14413
H         29.15965        28.94983         2.56289
O         31.84993        35.66057        -1.45528
H         31.93341        36.62151        -1.63453
O         41.18040        20.90706         2.08511
H         41.19847        21.88678         2.07835
H          5.05268        18.44783         1.26714
H          3.87353        20.60428         1.59684
H          3.92571        23.05759         1.81172
H          5.22978        25.12967         2.06657
H          7.43405        14.12216         0.73996
H          6.27257        16.28446         0.99637
H          6.49862        27.33597         1.99690
H          8.47901        29.44796         2.51458
H          9.91275         9.84386         0.45943
H          8.67053        11.95325         0.51369
H          8.96136        31.69753         1.45575
H         10.00205        33.76005         1.19326
H         12.42576         5.38533         1.26943
H         11.25153         7.73786         0.07983
H         11.39237        35.88264         1.59314
H         12.64930        37.93315         1.79603
H         14.61805         4.53124         1.60916
H         14.78053        39.13369         1.67005
H         16.92420         4.51492         1.56059
H         17.16530        39.18177         1.15538
H         19.39320         4.35275         1.06450
H         19.58232        39.41217         0.28067
H         21.90743         4.29260         0.64254
H         22.00311        39.36583         0.53534
H         24.38888         4.29389         0.25456
H         24.38264        39.34762         0.86992
H         26.89716         4.34859         0.16972
H         26.99517        39.00543         2.49129
H         29.40833         4.27720         0.54902
H         29.71186        39.20654         1.95803
H         33.90923         5.51231        -0.28498
H         31.76236         4.34007        -0.10017
H         34.06623        38.05227         0.96096
H         31.96304        39.27389         1.22441
H         35.33503         7.72337         0.12467
H         36.53650         9.75226         0.42494
H         36.50290        33.82624         0.50755
H         35.25800        35.92083         0.77885
H         37.04293        12.25503         1.89404
H         38.75399        14.55471         1.70634
H         39.03507        29.52136        -0.05433
H         37.77601        31.64575         0.33884
H         39.88594        16.30510         1.51762
H         41.11370        18.57334         1.95941
H         41.48847        24.85635        -0.85499
H         39.97302        26.95994        -1.45627
H         42.40225        20.41592        -0.73428
H         42.24623        22.81804        -1.19195
