         234
 CSIRO Nanostructure Databank - Neutral Graphene Oxide Data Set
C          1.17224         2.00786         0.36752
C          1.14886         3.45145         0.17819
C          2.33588         1.29625         0.39738
C          2.03119         4.27482         0.83968
C          1.07314         6.44278         0.22194
C          1.10740         7.78830        -0.07951
C          2.25718         5.69258         0.42794
C          2.34479         8.47368        -0.13452
C          1.24314        10.69374        -0.59921
C          1.24711        12.05500        -0.58269
C          2.38928         9.90888        -0.21065
C          2.32118        12.79750         0.09397
C          1.27746        15.04007        -0.38104
C          1.32677        16.41923        -0.47804
C          2.42211        14.28111        -0.02865
C          2.54018        17.11229        -0.25530
C          2.62109        18.53928        -0.34168
C          3.62868         1.90640         0.15092
C          3.73573         3.26182        -0.48895
C          4.83736         1.30057         0.36936
C          4.85607         4.10364         0.10109
C          3.51053         6.31751         0.21961
C          3.55352         7.72720         0.00235
C          4.81928         5.59139         0.28374
C          4.81623         8.42628        -0.04007
C          3.61324        10.56217         0.04827
C          3.58709        11.99058         0.40602
C          4.82604         9.83623         0.06582
C          4.88498        12.71395         0.62394
C          3.63315        14.94841         0.22299
C          3.70694        16.36518         0.07434
C          4.86807        14.21771         0.59974
C          4.94461        17.05486         0.28645
C          3.80258        19.19575        -0.10785
C          5.00054        18.47672         0.20881
C          6.11042         1.96094         0.07629
C          6.13558         3.39662        -0.13074
C          7.29651         1.26036         0.18169
C          7.30905         4.14043        -0.21907
C          6.08327         6.31459        -0.02122
C          6.05092         7.69833        -0.15656
C          7.30677         5.57917        -0.19859
C          7.24581         8.43830        -0.71987
C          6.11262        10.55287         0.26114
C          6.15751        12.02227         0.30404
C          7.38708         9.83526        -0.12205
C          7.34645        12.71489         0.11645
C          6.16652        14.90980         0.49385
C          6.14134        16.30930         0.53208
C          7.38924        14.16661         0.34330
C          7.35501        17.03602         0.86817
C          6.23039        19.16780         0.39320
C          7.41359        18.48960         0.70552
C          8.57312         1.87366        -0.17636
C          8.57352         3.42149        -0.41401
C          9.84153         1.28314         0.22473
C          9.83951         4.14757        -0.24984
C          8.55342         6.27992        -0.36672
C          8.56137         7.70853        -0.56596
C          9.78732         5.58711        -0.33877
C          9.74139         8.42928        -0.70737
C          8.55829        10.64776        -0.50454
C          8.55177        12.01691        -0.34928
C          9.67019         9.87429        -1.20517
C          9.74215        12.83508        -0.75609
C          8.60972        14.85139         0.31507
C          8.69038        16.23020         0.77090
C          9.80789        14.27569        -0.32885
C          9.91532        17.00783         0.57547
C          8.67717        19.11958         0.84822
C          9.88138        18.40411         0.80283
C         11.03523         2.00834         0.16578
C         11.02196         3.43594        -0.09855
C         12.27835         1.36679         0.45302
C         12.34947         4.12864        -0.21563
C         11.02901         6.32153        -0.36824
C         11.01211         7.77022        -0.58645
C         12.21706         5.63065        -0.18315
C         12.21220         8.48235        -0.75574
C         11.00983        10.63076        -1.21966
C         11.04851        12.14939        -1.06838
C         12.26440         9.88524        -1.01563
C         12.35210        12.84890        -0.87305
C         11.13076        14.92790        -0.12209
C         11.13723        16.30228         0.32507
C         12.33859        14.24782        -0.43542
C         12.33960        16.97715         0.68113
C         11.16431        19.20342         0.82207
C         12.39918        18.35310         1.01182
C         13.48696         2.07187         0.68313
C         13.40991         3.58726         0.79280
C         14.68994         1.40911         0.82707
C         14.75320         4.22212         0.48517
C         13.47220         6.38991        -0.10702
C         13.48062         7.71080        -0.79766
C         14.74355         5.67940         0.18199
C         14.77363         8.38640        -1.10642
C         13.46853        10.60106        -1.15855
C         13.49853        12.03942        -1.15469
C         14.76634         9.87188        -1.31345
C         14.82682        12.60622        -1.33935
C         13.56368        14.96698        -0.10522
C         13.55501        16.16486         0.76988
C         14.79390        14.66777        -0.64647
C         14.87498        16.88435         1.05267
C         13.60293        18.99571         1.32322
C         14.86658        18.34340         1.26480
C         15.95361         2.14654         1.18473
C         15.91855         3.53949         0.58801
C         17.25443         1.40183         0.93616
C         17.20477         4.18766         0.21337
C         16.03503         6.31733        -0.22001
C         16.09086         7.69944        -0.77832
C         17.24815         5.67412         0.36149
C         17.31763         8.50296        -0.52161
C         16.09437        10.57845        -1.16969
C         16.04218        12.04734        -1.03410
C         17.30710         9.84326        -0.73871
C         17.32091        12.89197        -1.04075
C         16.05421        15.06963        -0.11669
C         16.12785        16.26246         0.60247
C         17.24351        14.20444        -0.22848
C         17.36496        16.96792         0.71463
C         16.08505        19.02317         1.28890
C         17.34047        18.37064         1.04429
C         18.44453         2.01783         0.67991
C         18.48738         3.45275         0.29592
C         19.72936         1.33788         0.68683
C         19.76225         4.21592         0.36239
C         18.53758         6.40604         0.41677
C         18.53555         7.92525         0.22972
C         19.79766         5.62524         0.27258
C         19.84248         8.45288        -0.32005
C         18.53904        10.62958        -0.43987
C         18.53803        12.12104        -0.51036
C         19.82800         9.88438        -0.65106
C         19.83477        12.85388        -0.54333
C         18.57175        14.88882         0.06586
C         18.57216        16.33452         0.33957
C         19.83285        14.23128        -0.34946
C         19.78521        17.05647         0.27877
C         18.55267        19.07715         1.00173
C         19.76800        18.45040         0.62511
C         20.89711         2.01911         0.52492
C         20.95862         3.46518         0.37132
C         22.18238         4.15100         0.23206
C         21.02508         6.30009         0.05795
C         21.02786         7.75017        -0.22108
C         22.20828         5.52894         0.04028
C         22.27737         8.48464        -0.29702
C         21.14363        10.64666        -0.69776
C         21.13034        12.12007        -0.28647
C         22.33616         9.83901        -0.40522
C         22.29578        12.93459        -0.78516
C         21.03945        14.99943        -0.40023
C         21.02055        16.40757        -0.09843
C         22.23963        14.29203        -0.78709
C         22.19354        17.19053        -0.12167
C         20.98600        19.18170         0.57690
C         22.16700        18.55307         0.20651
O          6.99577         9.92342         1.27279
O          4.85305        13.46176         1.87851
O         15.55998        10.20145        -2.50164
O         14.17602        16.08800         2.08679
O         20.45810        10.27288        -1.92488
O         14.85222        13.91803        -1.82129
O         17.80527         3.68453        -1.01785
O          8.03783        16.51190         2.04228
O         14.04271         7.67796        -2.15512
O         17.76057         6.08072         1.66063
O          2.60091        12.28680         1.43763
O         18.39437        11.42423         0.78834
O          3.32096         3.52844        -1.60920
O          8.58577         2.48127        -1.51955
O         14.06271         6.44275         1.26701
O          9.48321        13.89130        -1.73666
O          4.87546         4.68485         1.46227
O         16.26941         6.52626        -1.64476
O         11.04517        11.50497        -2.39511
O         17.86434        14.09645         1.08538
O          2.55853         3.83938         2.01082
H          3.32958         4.39956         2.27209
O          9.27498         9.75256        -2.60613
H          9.65737        10.53720        -3.07371
O         13.01531         3.94021         2.12775
H         13.24076         4.89174         2.25660
O         17.62816        13.23748        -2.40868
H         16.79175        13.50667        -2.84761
O         15.91563         2.32676         2.64420
H         16.64131         2.93711         2.89356
O         12.90875         3.79859        -1.52724
H         12.25574         4.05088        -2.21406
O         11.09493        20.24709         1.79786
H         10.95825        19.83564         2.67584
O          6.92718         8.57676        -2.13110
H          7.73013         8.93852        -2.58930
O         18.46114         8.52218         1.55430
H         18.01326         7.86884         2.14246
O         21.23385        12.07612         1.18402
H         20.33010        11.87773         1.52861
H          0.21218         1.46563         0.40969
H          0.56247         3.85327        -0.66159
H          2.31176         0.21208         0.58810
H          0.10391         5.93882         0.34101
H          0.16508         8.33914        -0.19767
H          0.38124        10.17342        -1.04075
H          0.41748        12.60369        -1.04985
H          0.32061        14.52914        -0.55340
H          0.41809        16.98628        -0.72533
H          1.71250        19.10535        -0.59288
H          4.87761         0.26966         0.75472
H          3.84803        20.29265        -0.17088
H          7.29268         0.22489         0.55296
H          6.24832        20.26150         0.27536
H          9.84638         0.26060         0.63096
H          8.72621        20.21724         0.90021
H         12.29047         0.26760         0.52119
H         11.26654        19.71804        -0.17714
H         14.72123         0.31212         0.73167
H         13.57362        20.07797         1.52036
H         17.25829         0.32879         1.18709
H         16.08691        20.11311         1.44248
H         19.74312         0.24901         0.84249
H         18.56241        20.14999         1.24567
H         21.85096         1.47091         0.53726
H         23.12388         3.58328         0.23227
H         23.17909         6.01432        -0.12544
H         23.21263         7.94080        -0.10497
H         23.29448        10.35529        -0.24728
H         23.22509        12.42105        -1.07213
H         23.12867        14.86469        -1.08863
H         23.15410        16.73330        -0.39421
H         20.98363        20.24940         0.83832
H         23.10275        19.12871         0.17538
