         486
 CSIRO Nanostructure Databank - Neutral Graphene Oxide Data Set
C          8.40503        19.03345         0.99122
C          8.38467        20.39245         1.12488
C          7.11869        21.12495         1.05775
C          8.24157        23.27319         0.48379
C          7.03585        22.45838         0.87588
C          8.18868        24.76429         0.87246
C         10.95645        14.61531         1.58778
C         10.29683        15.73286         1.31469
C          9.46056        16.71734         0.99418
C         10.93469        18.95755         1.30427
C          9.61285        18.19832         1.22691
C         10.95543        20.47181         1.19602
C          9.62751        21.19844         1.30316
C         10.67213        23.27498         0.22138
C          9.54873        22.71815         1.09173
C         10.67812        24.73792         0.17697
C          9.53825        25.44558         0.61123
C         10.80701        27.57078         0.52459
C          9.58864        26.84056         0.71185
C         10.85197        28.99909         0.81464
C         13.31624        10.25006         0.33135
C         13.31845        11.70120         0.39088
C         12.10299        12.40049         1.00016
C         13.37470        14.57218         0.84947
C         11.99252        13.91713         0.68247
C         13.47026        16.06663         0.94487
C         12.32591        16.93960         0.54709
C         13.47849        18.96638         0.63752
C         12.29354        18.26136         1.30397
C         13.25097        20.32614         0.01733
C         12.14343        21.16315         0.64781
C         13.18470        23.23491        -0.38947
C         11.95411        22.46445         0.00492
C         13.15300        24.74409        -0.51929
C         11.80363        25.50449        -0.49461
C         13.16875        27.70611        -0.25530
C         11.91989        26.92437         0.00567
C         13.33033        28.92388         0.65392
C         12.02927        29.69624         0.81841
C         13.26213        31.83478         0.82732
C         12.08997        31.13047         0.98810
C         13.35821        33.27538         0.92077
C         15.74480         7.41669         0.12793
C         14.55319         8.06380         0.08544
C         15.74900        10.23040        -0.03200
C         14.45700         9.52039         0.09085
C         15.74722        11.71726        -0.08707
C         14.45807        12.40417         0.07009
C         15.62534        14.69840        -0.37226
C         14.57142        13.85553         0.34660
C         16.02676        15.98760         0.44151
C         14.77527        16.80822         0.80680
C         15.94123        18.99507         0.21032
C         14.64409        18.27776         0.48131
C         15.73385        20.40301        -0.29559
C         14.54268        21.08606        -0.18942
C         15.65017        23.27250        -0.31718
C         14.49303        22.53038        -0.27060
C         15.65991        24.72772        -0.02460
C         14.41289        25.51343        -0.26392
C         15.68211        27.64925        -0.14425
C         14.43558        26.88048        -0.18371
C         15.66787        29.01541        -0.26622
C         14.32960        29.72275        -0.19176
C         15.79548        31.79050         0.40674
C         14.48904        31.08895         0.43892
C         15.84621        33.22732         0.84785
C         14.55224        33.95979         0.90282
C         15.75663        36.11073         0.67897
C         14.60262        35.40696         0.75995
C         18.32176         7.40599        -0.14927
C         17.06315         8.17169         0.20908
C         18.17088        10.27493        -0.79167
C         16.88751         9.45218        -0.65104
C         18.15404        11.76273        -0.66940
C         16.95602        12.43764        -0.53527
C         18.17463        14.63183        -0.95326
C         16.88194        13.89724        -0.75923
C         18.17406        16.11202        -0.79068
C         17.08186        16.77101        -0.32915
C         18.24392        18.95373        -0.78767
C         16.91116        18.23040        -0.70408
C         18.25365        20.35455        -0.76218
C         16.94127        21.08285        -0.75680
C         18.24780        23.17506        -0.28966
C         16.89661        22.60871        -0.67810
C         18.29443        24.70239        -0.06225
C         16.97684        25.43589         0.12963
C         18.25760        27.71565        -0.12603
C         16.98150        26.94732         0.06837
C         18.21546        29.15270        -0.49653
C         16.87483        29.78458        -0.80075
C         18.20975        32.00877        -0.38795
C         16.87044        31.33581        -0.54750
C         18.28417        33.40500         0.00972
C         17.13220        33.99657         0.75755
C         18.31025        36.23696         0.50726
C         17.10061        35.50904         1.03671
C         20.78536         7.44239        -0.38815
C         19.48812         8.07806        -0.39782
C         20.71121        10.32583        -0.49956
C         19.46873         9.54340        -0.68515
C         20.63524        11.75828        -0.53406
C         19.42786        12.46114        -0.68742
C         20.62971        14.64020        -0.78100
C         19.45599        13.90758        -0.79805
C         20.68968        16.03311        -1.26540
C         19.38150        16.81815        -1.28506
C         20.67302        18.97197        -1.21496
C         19.44190        18.28476        -1.09483
C         20.70816        20.37937        -1.13167
C         19.47392        21.04684        -0.94685
C         21.03264        23.42052        -0.58903
C         19.17992        22.46879        -1.33217
C         20.62833        24.80310        -1.18823
C         19.56338        25.47272        -0.30133
C         20.76845        27.69635        -0.75656
C         19.56268        26.97507        -0.26756
C         20.62541        29.14549        -1.07289
C         19.37031        29.87065        -0.72756
C         20.60750        32.06622        -1.05277
C         19.36272        31.32046        -0.80815
C         20.64889        33.57704        -0.76987
C         19.41143        34.17640        -0.22162
C         20.69485        36.41649        -0.17927
C         19.43875        35.60095         0.10059
C         23.25961         7.52128        -0.31330
C         21.96064         8.17746        -0.42763
C         23.17714        10.36443        -0.62224
C         21.91512         9.62471        -0.48944
C         23.17922        11.80283        -0.26836
C         21.86517        12.52067        -0.21341
C         23.18285        14.76068        -0.52670
C         21.88643        14.01488        -0.34179
C         23.16719        16.16568        -1.03374
C         21.97789        16.78801        -1.26544
C         23.16739        18.95746        -1.92094
C         21.83028        18.20034        -1.83511
C         23.24690        20.37409        -1.65458
C         22.07796        21.06652        -0.95425
C         23.24153        23.27226        -1.45737
C         22.09006        22.57628        -1.23836
C         23.26232        24.76201        -1.59806
C         21.94821        25.54549        -1.42230
C         23.24284        27.65861        -1.36439
C         21.95798        26.97687        -1.24613
C         23.22287        29.15258        -1.23695
C         21.90719        29.88683        -1.23193
C         23.15057        32.02039        -0.52152
C         21.87820        31.31318        -0.80518
C         23.21462        33.50865        -0.78412
C         21.92749        34.23950        -0.48454
C         23.21177        36.28707        -0.03145
C         21.99383        35.61611        -0.16771
C         25.77937         7.47468        -0.21561
C         24.44927         8.18464        -0.27188
C         25.63980        10.45660        -0.00529
C         24.50286         9.64942        -0.46507
C         25.63966        11.85183        -0.18934
C         24.44481        12.53355        -0.43599
C         25.74781        14.67528        -0.98777
C         24.43689        13.97208        -0.75986
C         25.78163        16.15854        -0.94384
C         24.46846        16.94022        -0.86723
C         25.85650        18.90838        -1.74192
C         24.54570        18.18454        -1.73608
C         25.85299        20.41904        -1.90299
C         24.53552        21.07271        -1.60696
C         25.74588        23.40259        -1.97157
C         24.55502        22.58485        -1.45726
C         25.77099        24.78417        -1.30952
C         24.52525        25.48279        -1.31032
C         25.68223        27.56613        -0.83048
C         24.49046        26.87786        -1.11514
C         25.65341        28.99258        -0.46764
C         24.38159        29.81710        -0.57574
C         25.61973        31.94272        -0.22535
C         24.42623        31.27869        -0.56834
C         25.64815        33.32306        -0.01437
C         24.36958        34.12170         0.02761
C         25.81000        36.20245         0.28042
C         24.54465        35.61504        -0.32439
C         28.21326         7.70177         0.51289
C         26.85571         8.27169         0.51790
C         28.03017        10.56741         0.82297
C         26.78412         9.80971         0.63004
C         28.11319        11.91076         0.45438
C         26.84444        12.70439         0.17405
C         28.23466        14.70830        -0.41007
C         27.05060        13.86073        -0.83517
C         28.23502        16.10708        -0.60821
C         26.98729        16.82878        -0.90569
C         28.21005        19.01754        -1.00145
C         27.05874        18.27335        -1.15927
C         28.26607        20.46447        -1.27255
C         27.08948        21.16710        -1.59788
C         28.37629        23.39495        -1.69676
C         27.09009        22.63418        -1.85284
C         28.35029        24.91818        -1.44269
C         26.96879        25.47335        -1.08226
C         28.08925        27.56218        -0.30335
C         26.92028        26.86808        -0.75525
C         28.08345        28.97182        -0.16294
C         26.91983        29.71215        -0.41379
C         28.17864        31.91916        -0.28372
C         26.89253        31.18288        -0.39248
C         28.14374        33.19480         0.51123
C         26.81355        33.94873         0.71101
C         28.22281        36.06906         0.78996
C         26.92802        35.45630         0.52343
C         30.59278         7.72974         0.91767
C         29.30120         8.39766         0.93447
C         30.48308        10.59062         1.53625
C         29.15252         9.81291         1.51002
C         30.48313        12.11693         1.33882
C         29.31627        12.66237         0.53874
C         30.60217        14.77467         0.25084
C         29.37310        14.03818         0.12750
C         30.60916        16.15815        -0.05628
C         29.42993        16.84795        -0.41217
C         30.70946        19.04820        -0.69249
C         29.40627        18.37015        -0.32913
C         30.73104        20.41031        -0.93657
C         29.52428        21.14763        -1.15824
C         30.75237        23.27967        -0.68876
C         29.69979        22.61463        -1.55892
C         30.57515        24.66955        -0.25421
C         29.43648        25.40460        -0.49120
C         30.44538        27.47004         0.68591
C         29.16974        26.69311         0.29773
C         30.54473        28.97195         0.57453
C         29.31516        29.72331         0.22264
C         30.71977        31.81891         0.14340
C         29.48945        31.11113        -0.38525
C         30.71074        33.20250         0.40239
C         29.43620        33.90049         0.71281
C         30.69865        36.01066         1.03785
C         29.40793        35.37287         0.87718
C         31.74850         8.37609         1.16238
C         32.99855        10.54604         1.05634
C         31.76916         9.83139         1.41908
C         33.00415        11.89371         0.81703
C         31.80101        12.67393         0.83191
C         33.09824        14.70806         0.40675
C         31.83439        14.04848         0.51981
C         33.14698        16.16080         0.29014
C         31.86574        16.94076         0.04973
C         33.24798        18.97535        -0.61594
C         31.94554        18.19665        -0.82953
C         33.23318        20.45110        -0.42241
C         32.04652        21.18174        -1.00767
C         32.96763        23.06140         0.54132
C         31.86813        22.56012        -0.38027
C         32.80149        24.52878         0.83042
C         31.71119        25.26062         0.44444
C         33.04723        27.40609         0.80787
C         31.71930        26.71645         0.75355
C         33.13164        28.93555         0.73978
C         31.87299        29.56023         0.06164
C         33.13208        31.76526         0.46468
C         31.92161        31.08135         0.20755
C         33.11919        33.15448         0.66021
C         31.91614        33.88493         0.67628
C         31.86726        35.31027         0.96529
C         34.32417        12.50072         0.41273
C         35.55418        14.66418         0.31987
C         34.32572        14.00333         0.40035
C         35.62267        16.07096         0.11322
C         34.44067        16.77153        -0.00312
C         35.59577        18.92597         0.43305
C         34.47339        18.22285        -0.24196
C         35.53095        20.41198         0.49515
C         34.36567        21.13147        -0.08831
C         35.68034        23.29528         0.39889
C         34.39057        22.65451        -0.16302
C         35.89526        24.72098         0.23861
C         33.79237        25.19367         1.69520
C         36.04642        27.66579         0.85201
C         33.98540        26.64505         1.44580
C         35.76669        28.91147         0.33489
C         34.42077        29.57441         0.11104
C         34.48052        31.06975         0.53606
C         36.95185        16.78820        -0.02760
C         37.99947        18.89102         0.91136
C         36.90649        18.22193         0.48895
C         37.91174        20.33020         1.40018
C         36.86982        21.10093         0.54101
C         37.94231        23.20843         1.55618
C         36.76111        22.56720         0.85578
C         38.10573        24.66663         1.25276
C         37.06774        25.42069         0.74332
C         37.16687        26.85741         0.53172
C         39.21658        21.08348         1.29406
C         39.21824        22.41917         1.36202
O         19.22664        22.74368        -2.51960
O         26.02551        19.55350        -3.04987
O         31.22868        10.24038         2.75911
O         23.98155        10.05943        -1.79779
O         16.10716        10.95133         1.18807
O         16.25041        24.97709         1.31491
O         13.08837        28.33843        -1.60617
O         27.87663        23.05785        -3.03232
O         16.76338        33.29625         2.00162
O         22.57376        14.66280         0.79890
O         17.35063        14.23908        -2.11688
O         34.51215        24.54993         2.47455
O         23.48456        28.57735        -2.54448
O         14.24602        16.47764         2.11279
O         21.42067        18.03159        -3.17638
O         22.51664        25.19614        -2.76894
O         22.50364        12.05145         1.02368
O         14.33757        14.01340         1.80388
O         23.92966        18.29495        -2.99638
O         24.74557        21.79066        -0.28419
O         20.55087        27.46297         0.70411
O         21.09990        29.56534        -2.39314
O         16.71611        32.03834        -1.77904
O         26.41991         8.88674         1.73467
O         25.50365        23.75758        -3.29272
O         19.92578        16.25730        -2.50137
O         24.95407        14.21174        -2.14209
O         13.66926        29.71334        -1.49069
O         35.23085        27.06229         1.83261
O         30.94321        27.02471         1.99693
O         17.68972        27.51658         1.22272
O         27.54147        31.92246        -1.59069
O         29.78108        29.65058         1.61197
O         24.76500        29.23420         0.71851
O         11.76342        16.78503        -0.53622
O         28.80681        33.08070         1.80784
O         20.89526        23.20653         0.61637
O         13.17197        23.88280        -1.71311
O         18.88334         9.85995        -2.01687
O         22.30458        31.53093         0.58579
O         20.61209        33.01674        -2.16112
O         10.21443        18.54324         2.51429
O         15.48032        30.91268         1.53838
O         32.43738        16.97498         1.36841
O         10.43588        20.97739         2.50344
O         35.19543        19.60563         1.67843
O         10.87179        22.53653        -1.02953
O         34.26630        18.62837        -1.64547
O         16.78535        21.91600        -1.94937
O         19.25413        24.96911         1.01632
O         37.52493        20.32123         2.78013
H         36.62272        19.92537         2.83784
O         16.31021        18.23270        -2.02208
H         16.98269        17.95421        -2.67927
O         12.73092        20.00426        -1.31852
H         12.65340        20.84171        -1.82599
O         35.03552        31.21828         1.84372
H         34.46921        30.70365         2.46214
O         16.66103        15.55484         1.65286
H         15.94177        15.41694         2.31659
O         32.90052        22.34386         1.78040
H         33.46117        22.82470         2.43349
O         30.26587        22.62524        -2.91076
H         29.49081        22.51887        -3.52110
O          7.18852        25.42474         0.10116
H          7.29688        25.11213        -0.82420
O         34.63571        12.02458        -0.91052
H         35.37046        12.56513        -1.26741
O         29.22925        18.65632         1.10653
H         28.41722        18.19617         1.40876
O         27.38627        13.30048        -2.11697
H         26.57631        13.34755        -2.67868
O         17.28920         8.52930         1.59735
H         16.63437         9.21146         1.86980
O         14.97369        15.12867        -1.57845
H         15.65383        15.14388        -2.29387
O         34.38030        29.56368        -1.33654
H         33.46011        29.40810        -1.66263
O         34.32723        23.09365        -1.54217
H         33.67365        22.51072        -2.03952
O         28.73349         9.65326         2.88727
H         29.55817         9.53486         3.41426
O          9.67421        23.33897         2.38970
H         10.14731        22.69055         2.96806
O          8.29419        23.25509        -0.96265
H          8.64498        22.39146        -1.26688
O         35.11781        25.38082        -0.59582
H         34.54347        24.74216        -1.11011
O         26.22339         7.21947        -1.56119
H         25.84187         7.89823        -2.15612
O         23.42856        33.61759        -2.22456
H         22.56247        33.41428        -2.65824
O         24.42485        17.47520         0.49473
H         24.17502        16.74915         1.10692
O         22.34142        20.91814         0.47109
H         21.79133        21.59251         0.94274
O         33.08850        29.37017         2.12072
H         32.28237        28.99051         2.53680
O         23.88962        34.08476         1.39802
H         24.66954        33.99581         1.99941
O         24.75083        35.84201        -1.74627
H         24.23158        35.16466        -2.25028
O         13.85095        28.55921         1.92843
H         14.43693        29.27922         2.25320
O         28.57991        26.17702         1.52645
H         29.28023        26.21304         2.22235
O         12.20960        12.23024         2.41931
H         13.07652        12.61091         2.69176
O         37.39653        21.07729        -0.82010
H         36.72838        21.47091        -1.42184
O         26.46092        33.80384         2.12902
H         27.30649        33.61542         2.61124
O         37.29473        16.80918        -1.42078
H         38.05743        17.41024        -1.54482
O         30.30373        12.69529         2.67249
H         30.80860        12.11972         3.29215
O         31.93204        17.68635        -2.19222
H         32.80633        17.90361        -2.59556
O         28.68473        25.54506        -2.71146
H         28.14197        25.08047        -3.39252
O         29.77544        30.88766        -1.79627
H         28.95321        31.14252        -2.29421
O         17.20712        35.71845         2.47793
H         16.91318        34.87199         2.89801
O         31.82292        29.17564        -1.34328
H         31.14903        29.76132        -1.78583
O         20.77683        37.52823         0.71062
H         20.73555        37.19298         1.62981
O         26.51275        13.36378         1.42563
H         26.52583        12.69631         2.14441
O         16.75012        29.60503        -2.23416
H         16.71589        30.53663        -2.60471
O         16.61856        19.09002         1.49160
H         15.97474        19.38419         2.17004
O         18.49604        22.55399         0.98677
H         19.02758        23.18134         1.53393
O         12.66230        18.13651         2.68670
H         11.83089        18.13541         3.21642
O         32.46607        21.35939        -2.39914
H         31.69117        21.74144        -2.89869
O         16.45341         9.06131        -1.96527
H         17.25875         9.02683        -2.53439
O         11.62914        14.03157        -0.69316
H         11.56894        14.99321        -0.92460
O         37.58264        23.12416         2.97918
H         36.80132        23.70096         3.12892
O         11.37293        25.64154        -1.88409
H         11.65277        24.81131        -2.34106
O         20.00946        24.84054        -2.47403
H         20.69503        24.67785        -3.16411
H          7.45522        18.50917         0.79929
H          6.20041        20.53596         1.20811
H          6.05272        22.95212         0.85565
H          7.91289        24.87482         1.95039
H         10.83518        14.15588         2.58811
H          8.49614        16.42604         0.53586
H          8.67420        27.38959         0.98009
H          9.89877        29.51756         1.00026
H         12.36407         9.72879         0.51292
H         11.16439        11.89127         0.66985
H         11.15678        31.66793         1.21840
H         12.41833        33.84708         0.97683
H         15.76368         6.31693         0.17789
H         13.61619         7.48568         0.09252
H         15.71188        37.20116         0.53586
H         13.64025        35.92785         0.63439
H         18.35403         6.32313         0.05236
H         18.34730        37.32341         0.68404
H         20.83267         6.34832        -0.27834
H         20.60019        36.84801        -1.21588
H         23.25815         6.42401        -0.21856
H         23.18187        37.38231         0.08836
H         25.67107         6.48189         0.29491
H         25.90122        37.30163         0.25889
H         28.33423         6.68561         0.10692
H         28.25678        37.16925         0.84206
H         30.60027         6.65605         0.67570
H         30.72071        37.09402         1.22742
H         32.71081         7.84565         1.12027
H         33.92799         9.96723         0.95710
H         34.06925        33.67122         0.85935
H         32.82289        35.83322         1.11691
H         35.12768        12.13828         1.12254
H         36.48588        14.08080         0.37051
H         36.53211        29.31176        -0.34990
H         35.17885        31.58846        -0.17060
H         37.74369        16.21790         0.54106
H         38.97226        18.37605         0.97194
H         39.01824        25.16752         1.60394
H         38.10680        27.29613         0.16904
H         40.15585        20.52226         1.17459
H         40.16072        22.98442         1.30694
