         621
 CSIRO Nanostructure Databank - Neutral Graphene Oxide Data Set
C          5.95161        31.61205         0.58479
C          5.95665        32.96394         0.46766
C          8.28638        27.36398         0.61992
C          8.30123        28.66443         1.42795
C          7.12259        29.50793         1.02784
C          8.40580        31.60147         1.05608
C          7.16033        30.86899         0.89759
C          8.40111        32.99680         0.91424
C          7.17707        33.72373         0.64021
C          8.37407        35.88830         0.74906
C          7.17766        35.10491         0.55896
C          8.34005        37.27360         0.73294
C         10.82835        23.06853         0.49525
C         10.73355        24.49770         0.51706
C          9.44132        25.05302         0.43614
C         11.02417        27.35134         1.44904
C          9.13517        26.35379         0.95767
C         10.89679        28.74684         1.32177
C          9.63232        29.43581         1.33340
C         10.88313        31.55787         1.25004
C          9.63060        30.83973         1.25979
C         10.85396        33.03872         1.38525
C          9.60806        33.77243         1.06535
C         10.85905        35.94894         1.29077
C          9.60849        35.14879         0.97380
C         10.79753        37.31497         0.60097
C          9.55749        38.12665         1.03937
C         10.76947        40.18497         0.22337
C          9.56985        39.50077         0.39400
C         10.82052        41.60303        -0.03470
C         13.33865        18.93881         1.19095
C         13.22663        20.20216         0.59372
C         12.06674        20.99770         0.70437
C         13.13578        23.06424        -0.41955
C         12.01198        22.35402         0.31758
C         13.17768        24.58221        -0.05020
C         11.99182        25.24858         0.55278
C         13.37342        27.35954         0.80942
C         12.12327        26.61102         0.91396
C         13.35444        28.77163         1.01458
C         12.13237        29.46335         1.10145
C         13.31204        31.63622         0.60086
C         12.09023        30.89243         1.08957
C         13.40124        33.02837         1.18522
C         12.13852        33.78996         1.42582
C         13.41923        36.02082         1.39264
C         12.16702        35.21895         0.90847
C         13.35587        37.42609         0.78972
C         12.10514        38.07420         0.64775
C         13.23778        40.17134         0.21702
C         12.02814        39.45189         0.35077
C         13.22112        41.58818         0.20917
C         12.02465        42.33100         0.03687
C         13.28883        44.47167         0.29358
C         12.13451        43.78860        -0.05490
C         13.47329        45.89709         0.23065
C         15.76599        14.69655         1.15928
C         15.82401        16.09260         1.27019
C         14.60573        16.83320         1.37596
C         15.84900        18.92847         1.44605
C         14.58042        18.22578         1.37062
C         15.90491        20.33166         1.56735
C         14.32471        20.76717        -0.25519
C         15.79477        23.01920        -0.00143
C         14.49111        22.29964        -0.30856
C         15.78852        24.54358        -0.09583
C         14.51114        25.32102         0.03973
C         15.84875        27.43164         0.58132
C         14.58853        26.69773         0.56409
C         15.88647        28.78802         0.83829
C         14.64516        29.51076         1.28778
C         15.80537        31.60358         0.48108
C         14.63498        30.92601         0.77312
C         15.70037        33.03852         0.10476
C         14.62635        33.78548         0.83620
C         15.92874        35.98781         0.54634
C         14.70455        35.27637         1.00599
C         15.95041        37.51935         0.54329
C         14.54780        38.11506         0.44094
C         15.65929        40.22559        -0.32530
C         14.47464        39.47485         0.16008
C         15.78063        41.58937         0.23731
C         14.47168        42.24994         0.58295
C         15.74186        44.31921         0.98909
C         14.37677        43.68868         0.99299
C         15.72950        45.69726         1.15484
C         14.64690        46.52707         0.67625
C         15.98423        48.71326         0.42785
C         14.82379        47.97451         0.57310
C         15.84508        50.21650         0.22210
C         18.10627        10.47428        -0.09436
C         18.09613        11.78837         0.37718
C         16.91040        12.55710         0.62657
C         18.17763        14.68377         0.73816
C         16.93680        13.94958         0.87305
C         18.32862        16.07163         1.03208
C         17.09530        16.79263         1.22585
C         18.32696        18.92838         1.37810
C         17.08372        18.20460         1.32249
C         18.29068        20.32302         1.24797
C         17.06055        21.05253         1.12403
C         18.26243        23.10413         0.50556
C         17.01513        22.38935         0.63524
C         18.30778        24.49847         0.22964
C         17.07281        25.28421         0.03888
C         18.31398        27.40810         0.37089
C         17.10543        26.73366         0.36086
C         18.39200        28.85023         0.39438
C         17.18853        29.57279         0.92708
C         18.24284        31.67372        -0.05494
C         17.09304        30.98381         0.40392
C         18.19487        33.06116        -0.42647
C         16.89020        33.77466        -0.41043
C         18.16396        35.96044        -0.62304
C         16.81452        35.30628        -0.49891
C         18.14278        37.39845        -0.74292
C         16.97626        38.09363        -0.42982
C         18.16580        40.35913        -0.93676
C         16.91270        39.53542        -0.71413
C         18.27098        41.73739        -0.35116
C         17.07278        42.32941         0.20642
C         18.78655        44.68548         0.32005
C         16.95642        43.55265         0.89349
C         18.65828        46.08394         0.11512
C         17.61006        46.86193         0.67967
C         18.37979        48.88172        -0.39888
C         17.30858        48.14763         0.23885
C         18.33468        50.30078        -0.46513
C         17.15212        50.97129         0.05601
C         18.42457        53.06709         0.22161
C         17.22861        52.28979         0.42513
C         18.58389        54.31209         0.78797
C         20.56933         7.07545        -2.79695
C         20.64966         8.11038        -1.76988
C         19.45950         8.73826        -1.42452
C         20.70863        10.41285        -0.03542
C         19.37305         9.75964        -0.38381
C         20.66642        11.82485         0.47994
C         19.34975        12.51581         0.38452
C         21.14053        14.87347         0.76864
C         19.26186        13.88637         0.28060
C         20.90257        16.16406         1.36391
C         19.61428        16.77949         1.25287
C         20.80923        18.89438         1.65285
C         19.58359        18.19906         1.48085
C         20.79632        20.38180         1.66287
C         19.51662        21.11124         1.36785
C         20.70770        23.14064         0.53116
C         19.50557        22.47501         0.80284
C         20.74223        24.48268         0.10408
C         19.51548        25.18056         0.09686
C         20.84044        27.35045        -0.06785
C         19.56608        26.64712         0.23829
C         20.82642        28.84414        -0.15557
C         19.53182        29.55276         0.01291
C         20.63318        31.67195        -0.74870
C         19.51171        30.98608        -0.21756
C         20.60818        33.07134        -1.01768
C         19.35103        33.75742        -0.80572
C         20.34263        35.83907        -1.67897
C         19.27019        35.19779        -0.98755
C         20.19428        37.24145        -1.97337
C         19.26874        38.07137        -1.37191
C         20.70830        40.29758        -1.31007
C         19.39447        39.58227        -1.40655
C         20.68778        41.68841        -1.02926
C         19.50877        42.41874        -0.57071
C         20.73953        44.58033        -1.05052
C         19.63693        43.86863        -0.44631
C         20.74334        46.00455        -1.10531
C         19.64115        46.76112        -0.65602
C         20.73380        48.96098        -1.08215
C         19.58542        48.20455        -0.73527
C         20.69383        50.36436        -1.16553
C         19.48160        51.03665        -0.86093
C         20.71251        53.30691        -0.92868
C         19.46017        52.51065        -0.69005
C         21.00492        54.46249         0.01259
C         19.79208        55.08263         0.67025
C         21.11566        57.11473         1.13313
C         19.94003        56.28779         1.31420
C         21.29137        58.31379         1.83462
C         23.04286         4.38961        -3.78686
C         21.80257         5.05269        -3.79260
C         23.25715         6.64139        -1.86546
C         21.44558         6.00162        -2.79943
C         23.21157         8.01994        -1.55829
C         21.93451         8.63807        -1.28544
C         23.18163        10.58652        -0.45724
C         21.95542         9.89896        -0.64364
C         23.25887        11.81615         0.37194
C         21.97715        12.52041         0.75261
C         23.29353        14.44468         1.86961
C         22.09235        13.96883         1.09694
C         23.28974        15.97521         2.02626
C         22.09502        16.79084         1.88304
C         23.27663        19.01552         1.79591
C         22.05818        18.23480         1.87160
C         23.28672        20.31933         1.15018
C         22.05870        21.11188         1.32683
C         23.14483        23.00508        -0.05570
C         22.00448        22.48479         0.75506
C         23.15534        24.45699        -0.35370
C         21.98135        25.14951        -0.28410
C         23.10792        27.26696        -1.28735
C         21.81265        26.52496        -0.90486
C         23.15752        28.76331        -1.30331
C         22.01071        29.54358        -0.72589
C         23.12057        31.66642        -1.63539
C         21.84863        30.94904        -1.20473
C         23.10269        33.17136        -1.70398
C         21.75305        33.76181        -1.57575
C         23.38983        36.18950        -2.35213
C         21.46167        35.07146        -2.05734
C         23.34320        37.60985        -2.06954
C         22.14065        38.36609        -2.13866
C         23.21265        40.34192        -1.27688
C         21.98074        39.64175        -1.54940
C         23.18900        41.74437        -1.19610
C         21.93061        42.43586        -1.17122
C         23.18335        44.54444        -1.63982
C         21.92489        43.83609        -1.31169
C         23.23003        46.05344        -1.67749
C         22.01088        46.74996        -1.20703
C         23.28585        48.98011        -1.40213
C         22.02424        48.25284        -1.13181
C         23.26451        50.41712        -1.39931
C         21.94857        51.10176        -1.51481
C         23.25246        53.32971        -1.31075
C         21.95395        52.61929        -1.43881
C         23.23654        54.81418        -1.24623
C         21.96574        55.47840        -0.61320
C         22.94153        57.77202        -0.30324
C         22.01341        56.79084         0.06196
C         23.32306        58.82929         0.55026
C         22.42364        59.15208         1.61483
C         23.81711        61.08237         2.13129
C         22.68006        60.31402         2.38658
C         24.22241         4.76516        -3.12843
C         25.62488         6.63583        -2.15678
C         24.39182         5.98485        -2.39924
C         25.69356         7.94822        -1.63709
C         24.45843         8.72072        -1.46430
C         25.53963        10.94261        -1.01375
C         24.39225        10.07210        -0.99127
C         25.73384        12.11477        -0.31280
C         24.55177        12.62062         0.46466
C         25.44363        14.93291         0.75798
C         24.47313        14.00872         0.99494
C         25.77008        15.98717         1.69965
C         24.56897        16.47562         2.35772
C         25.73417        19.13544         1.74964
C         24.52116        18.58929         2.24614
C         25.69338        20.17511         0.70632
C         24.41433        20.89389         0.62067
C         25.68913        22.94000        -0.22346
C         24.39109        22.19665        -0.09362
C         25.70676        24.39552        -0.55580
C         24.39938        25.05063        -0.91278
C         25.69286        27.21341        -1.40073
C         24.39504        26.49049        -1.32948
C         25.69228        28.68948        -1.68792
C         24.44668        29.50791        -1.40528
C         25.66618        31.62103        -1.79764
C         24.40008        30.87296        -1.54948
C         25.63193        33.11903        -1.95739
C         24.31502        33.88423        -1.87445
C         25.73337        36.05903        -1.90164
C         24.43005        35.34012        -1.96431
C         25.76590        37.55603        -1.70631
C         24.49482        38.26809        -1.58613
C         25.70690        40.34519        -1.10684
C         24.47029        39.64645        -1.29486
C         25.69115        41.76118        -0.97171
C         24.43279        42.47483        -1.11670
C         25.60563        44.65306        -0.96565
C         24.43294        43.85132        -1.30566
C         25.66728        46.09102        -1.28508
C         24.50452        46.79875        -1.49879
C         25.72562        48.94807        -1.12364
C         24.47408        48.24760        -1.44650
C         25.71863        50.47382        -1.05722
C         24.44455        51.16932        -1.33742
C         25.74114        53.33921        -1.42570
C         24.43886        52.61761        -1.36503
C         25.76831        54.76693        -1.10465
C         24.55908        55.49663        -1.16201
C         25.83660        57.58872        -0.69591
C         24.67446        56.89224        -1.13728
C         25.73804        58.93391        -0.21716
C         24.59717        59.50354         0.41563
C         24.77036        60.68262         1.19301
C         26.98381         8.37470        -1.16106
C         28.31822        10.36850        -0.28061
C         27.35365         9.72465        -1.06178
C         28.30503        11.79326        -0.06193
C         27.10846        12.61762        -0.16053
C         28.39637        14.61680         0.68521
C         27.28375        13.98410         0.09191
C         28.36597        15.94835         1.26628
C         27.10334        16.44093         1.85546
C         28.15904        19.31504         1.71373
C         26.97341        18.65268         2.11173
C         28.26033        20.32118         0.77810
C         26.98458        20.77800         0.18435
C         28.22523        22.90909        -0.59970
C         26.94643        22.15436        -0.42589
C         28.20246        24.40177        -0.85605
C         26.97260        25.05790        -0.99142
C         28.09512        27.05675        -1.89153
C         26.85677        26.46733        -1.34490
C         28.47228        28.98305        -1.83209
C         26.99200        29.45499        -1.80205
C         28.23814        31.62566        -1.35341
C         26.90258        30.89964        -1.25413
C         28.24211        33.11867        -1.42293
C         26.96971        33.84600        -1.79759
C         28.18556        36.02329        -1.08530
C         27.01669        35.32506        -1.68960
C         28.15859        37.45883        -1.03659
C         27.00246        38.21430        -1.24821
C         28.15927        40.37339        -0.91604
C         26.96347        39.64504        -1.09630
C         28.15343        41.78633        -0.78733
C         26.90509        42.46633        -0.83441
C         28.17754        44.65275        -0.74849
C         26.90360        43.91955        -0.67265
C         28.20426        46.04759        -0.86463
C         26.98435        46.75335        -1.29860
C         28.25943        48.93534        -0.86270
C         27.02906        48.25413        -1.32033
C         28.32141        50.40751        -1.17235
C         27.00793        51.14617        -1.08808
C         28.28232        53.29051        -0.84259
C         27.06776        52.57386        -1.31157
C         28.22911        54.68106        -0.72879
C         27.01869        55.43941        -0.88066
C         27.03078        56.83042        -0.63199
C         29.50745        12.44309         0.29051
C         30.82899        14.51366         0.67016
C         29.60234        13.82930         0.60658
C         30.84188        15.92640         0.76873
C         29.65369        16.63235         1.24253
C         30.91708        18.76068         0.77810
C         29.92528        18.02624         1.44774
C         30.81480        20.19833         0.52760
C         29.52710        20.92999         0.38194
C         30.71274        22.93066        -0.46690
C         29.47705        22.19107        -0.20220
C         30.62091        24.40780        -0.41758
C         29.49328        25.07552        -0.84909
C         30.33331        27.33141         0.00956
C         29.86525        26.54268        -1.23539
C         30.48907        28.82126        -0.22267
C         29.37126        29.52438        -0.71736
C         30.53054        31.67260        -0.32602
C         29.39256        30.93631        -0.72260
C         30.47044        33.12653        -0.33176
C         29.37207        33.85128        -0.78155
C         30.46533        36.04037        -0.14300
C         29.32691        35.30679        -0.68333
C         30.52812        37.41401        -0.20192
C         29.44138        38.15567        -0.84850
C         30.59464        40.41795        -0.31262
C         29.44993        39.68471        -0.85603
C         30.58694        41.81272        -0.27195
C         29.37746        42.51095        -0.60375
C         30.61604        44.66652        -0.49365
C         29.39118        43.93895        -0.62315
C         30.56737        46.05457        -0.20496
C         29.37745        46.76473        -0.50783
C         30.58977        48.93740        -0.06215
C         29.36683        48.22703        -0.47298
C         30.58265        50.38043        -0.10437
C         29.47585        51.12538        -0.51366
C         29.42298        52.53914        -0.45359
C         32.04983        16.62315         0.50023
C         33.30857        18.76496         0.22439
C         32.11280        18.03487         0.42405
C         33.29241        20.18117         0.25030
C         32.00624        20.84974         0.21599
C         33.20248        23.07284         0.14637
C         32.02193        22.26194        -0.20523
C         33.09307        24.46424         0.30859
C         31.76019        25.12613         0.20496
C         32.86843        27.36128         0.60783
C         31.61949        26.61629         0.47612
C         32.92473        28.75598         0.24371
C         31.67155        29.53072         0.08061
C         32.96554        31.65372         0.29528
C         31.71857        30.94982         0.02857
C         32.94795        33.12543         0.23205
C         31.62660        33.82461         0.28420
C         32.90829        36.05250         0.64098
C         31.62810        35.31294         0.41675
C         32.92090        37.44595         0.65454
C         31.66701        38.17086         0.36570
C         33.05692        40.34980         0.33095
C         31.73353        39.66535         0.22487
C         33.08527        41.85832         0.28035
C         31.81427        42.55668        -0.08677
C         32.93152        44.76595         1.52567
C         31.83357        43.87653        -0.53927
C         32.85402        46.02282         0.97645
C         31.54052        46.75864         0.76747
C         31.66749        48.22533         0.41816
C         34.46991        20.96238         0.28835
C         35.56695        23.16235         0.73173
C         34.43196        22.39174         0.38752
C         35.47372        24.55510         0.92465
C         34.21007        25.20075         0.75622
C         35.35679        27.42382         1.31984
C         34.07362        26.64135         1.03953
C         35.39349        28.86703         1.08964
C         34.25620        29.54614         0.49009
C         35.36901        31.72896         0.97319
C         34.16817        31.01183         0.56837
C         35.33181        33.11800         1.12587
C         34.17821        33.89590         0.68396
C         35.19705        36.04462         1.49997
C         34.08463        35.34193         1.00709
C         35.22915        37.46122         1.50267
C         34.08721        38.18263         1.04639
C         35.29354        40.31833         1.40707
C         34.13854        39.60256         0.99374
C         35.27843        41.74621         1.43816
C         34.15177        42.53900         1.08508
C         34.11381        43.89362         1.47626
C         36.65404        25.32112         1.25482
C         37.81817        27.47324         1.65968
C         36.64483        26.69661         1.38290
C         37.79202        28.86093         1.73306
C         36.56804        29.58813         1.38936
C         37.82760        31.71750         1.53900
C         36.56435        30.99342         1.30811
C         37.77383        33.20666         1.77051
C         36.42486        33.82561         1.81646
C         37.62351        36.04710         2.29858
C         36.36336        35.31228         2.02956
C         37.60218        37.42593         2.26796
C         36.42089        38.17497         1.89541
C         36.42648        39.57060         1.85921
C         38.96240        29.60978         2.11249
C         40.10878        31.76835         2.55439
C         38.99719        30.98827         2.06743
C         40.06024        33.12879         2.73347
C         38.88879        33.91397         2.43942
C         38.79846        35.27948         2.64064
O         22.17178        55.42468        -2.03744
O         38.13495        32.68589         0.45786
O         25.79849        23.94714         0.84807
O         23.49524        22.20773        -1.25231
O         31.30501        34.44146         1.57817
O         20.11612         9.43215         0.86076
O         25.72276        32.21004        -3.11165
O         25.64538        49.60517         0.17612
O         15.87444        35.49234         1.91166
O         26.05182        44.39517         0.43225
O         16.84463        46.31552         1.71058
O         27.17045        47.51968        -2.56549
O         22.32786        22.28780         2.17532
O         22.87430        28.01867        -2.52675
O         15.45378        22.56298        -1.36382
O         27.54297        22.22326        -1.74321
O         22.16962        31.09332        -2.61207
O         34.45313        27.03236         2.42801
O         10.00264        26.63826         2.06545
O         27.32148        34.65426        -2.96720
O         26.27646        19.75596        -0.59199
O         21.24694        11.84071         1.84345
O         23.13136        45.30806        -2.92274
O         18.10931        44.13952         1.41634
O         26.26248        29.13144        -2.98467
O         26.25574        14.81524        -0.36549
O         21.89441        29.42208         0.71910
O         11.47296        33.51615         2.68292
O         29.07446        29.04856        -2.94416
O         29.25368        18.80500         2.39730
O         15.86759        33.21239        -1.33562
O         30.51903        26.69970        -2.30527
O         33.85851        33.67999        -0.75970
O         14.43365        33.18302         2.18031
O         36.03914        34.36338         3.12610
O         18.52493        40.27728        -2.35814
O         27.20500        17.46812         2.84394
O         26.53573        53.01891        -2.62694
O         26.57188        10.57412        -1.88093
O         20.59645        26.93423         1.29765
O         33.57294        41.04876        -0.85948
O         13.70664        25.31469        -1.20183
O         20.06279        21.00997         2.75634
O         31.31136        39.04946         1.51632
O         15.23223        41.50802         1.61393
O         16.49703        25.00453        -1.29841
O         33.90073        29.01780        -0.83297
O         29.83936        38.90478        -2.05301
O         22.24651        47.42185         0.08615
O         22.30257        35.62946        -3.02142
O         24.31558        25.39650        -2.32956
O         22.15373         5.86401        -1.56966
O         31.33956        25.65433         1.55067
O         28.61996        32.27999        -2.58113
O         25.90331        36.96128        -3.05045
O         14.98314        20.06728        -1.00030
O         20.32344        14.55349        -0.31852
O         21.09989        37.81239        -2.86862
O         19.63697        53.39201        -1.87727
O         21.79966        51.93360        -2.71404
O         15.89913        39.97547        -1.73610
O         31.53621        22.45674        -1.60019
O         24.62941        17.58669         3.21643
O         23.58419        57.66598        -1.54688
O         24.15871        11.65920         1.52968
O         13.10262        31.82739        -0.83190
H         13.12125        30.95016        -1.26868
O         12.75903        22.99842        -1.80520
H         13.41051        23.54711        -2.29894
O         28.17864        26.79293        -3.14676
H         29.03071        27.22285        -3.47781
O         14.72864        29.61559         2.75401
H         15.64337        29.93117         2.96209
O         28.60221        50.44465        -2.62550
H         28.58092        51.38348        -2.91373
O         16.15514        35.66129        -1.74775
H         15.76066        34.83336        -2.11784
O         10.86327        36.15150         2.71865
H         11.04760        35.27277         3.13831
O         21.08982        26.28432        -2.13960
H         21.73863        26.07235        -2.84545
O         14.92586        21.04375         2.19971
H         15.23825        21.95926         2.34678
O         12.30764        35.07089        -0.51786
H         11.74149        35.74618        -0.97137
O          8.10129        28.34732         2.83589
H          8.80446        27.70204         3.08300
O          9.55435        38.41423         2.45970
H          9.91471        37.61897         2.92707
O         29.32422        27.18816         1.03454
H         29.67593        26.54042         1.69322
O         16.46122        37.95772         1.83559
H         16.30885        37.21645         2.46992
O         30.79224        46.74974         2.02006
H         30.81149        45.82797         2.36452
O         10.57944        37.04609        -0.82376
H         10.54002        37.90955        -1.28921
O         26.64178        30.77531         0.17214
H         27.43621        30.39757         0.60969
O         21.76228        53.82536         1.09906
H         21.75027        54.42621         1.87450
O         13.96804        43.68599         2.39747
H         14.47152        42.95984         2.83176
O         23.36727        13.86498         3.18193
H         23.38894        12.88717         3.05995
O         17.45079        29.72604         2.38989
H         17.87205        28.89617         2.70318
O         31.82882        44.22946         2.16007
H         32.05642        43.35121         2.52623
O         13.40180        36.14098         2.82243
H         14.31292        35.97683         3.15130
O         15.02768        50.46655        -0.93999
H         15.54191        50.21797        -1.73553
O         32.94515        44.41438        -1.08652
H         33.65620        43.74095        -1.11956
H          5.01775        31.04501         0.45687
H          5.02805        33.50921         0.24363
H          7.59903        27.25895        -0.23092
H          6.15845        28.98793         0.91686
H          6.23148        35.63295         0.36527
H          7.36802        37.77696         0.60894
H          9.92123        22.50469         0.76448
H          8.62589        24.40450         0.08111
H          8.61955        40.05397         0.32565
H          9.86861        42.14334        -0.14800
H         12.41626        18.45292         1.55073
H         11.19109        20.58284         1.22960
H         11.25479        44.35160        -0.40421
H         12.67570        46.51116        -0.21562
H         14.79637        14.18408         1.24022
H         13.65747        16.27786         1.31570
H         13.88517        48.55008         0.50511
H         15.28532        50.65059         1.09141
H         17.15874         9.94480        -0.27284
H         15.93914        12.04093         0.63186
H         16.37043        52.77206         0.91782
H         17.76535        54.73593         1.39005
H         19.76199         7.14487        -3.54102
H         18.53364         8.44028        -1.94022
H         19.11043        56.69069         1.91449
H         20.56052        58.59720         2.60594
H         23.14610         3.55891        -4.50374
H         21.10936         4.86316        -4.62457
H         23.99666        61.99169         2.72226
H         21.97926        60.60588         3.18118
H         25.13425         4.20348        -3.38236
H         26.56325         6.10425        -2.37126
H         26.68934        59.46814        -0.05836
H         25.70454        61.25423         1.09313
H         27.69445         7.59126        -0.85612
H         29.10480         9.77477         0.20841
H         29.13820        55.22325        -0.42756
H         27.97173        57.31674        -0.33650
H         30.44121        11.86211         0.26041
H         31.77042        13.97381         0.49187
H         31.46871        50.91125         0.27881
H         30.28730        53.08364        -0.04217
H         32.95277        16.03516         0.28071
H         34.26218        18.23026         0.10650
H         33.74486        46.40566         0.45878
H         32.57513        48.76518         0.73071
H         35.44364        20.45451         0.35212
H         36.53280        22.66082         0.89153
H         36.13142        42.25403         1.91463
H         35.06454        44.32570         1.83071
H         37.60648        24.77810         1.35169
H         38.76679        26.94381         1.83693
H         38.51912        37.98791         2.50272
H         37.33522        40.11358         2.15963
H         39.84107        29.05482         2.47557
H         41.02165        31.22557         2.84262
H         40.93779        33.64661         3.14852
H         39.67079        35.82115         3.03836
