         634
 CSIRO Nanostructure Databank - Neutral Graphene Oxide Data Set
C         23.26363        69.91575         2.10347
C         23.24943        71.33796         2.08532
C         22.05221        72.07111         2.27872
C         23.24235        74.17308         2.03335
C         22.06156        73.46855         2.25016
C         25.62535        65.60508         1.64812
C         25.60947        67.03614         1.60372
C         24.46208        67.76163         1.91019
C         25.67843        69.90510         1.68249
C         24.44636        69.19408         1.89584
C         25.68518        71.33381         1.66861
C         24.46904        72.05009         1.86278
C         25.68498        74.17587         1.62827
C         24.47143        73.48337         1.83629
C         27.98223        61.35306         0.78151
C         27.94311        62.74843         0.85262
C         26.77639        63.45435         1.21094
C         27.82821        65.61059         0.54578
C         26.73134        64.87024         1.22653
C         27.93824        67.05547         0.79751
C         26.85058        67.74534         1.30379
C         28.10045        69.88851         1.31362
C         26.89109        69.18900         1.47562
C         28.12461        71.32971         1.27866
C         26.89950        72.04432         1.45082
C         28.13230        74.17227         1.28291
C         26.90667        73.48280         1.44466
C         30.42770        57.09918         0.06056
C         30.42701        58.51365         0.17270
C         29.22595        59.24530         0.46365
C         30.41775        61.39917         0.30378
C         29.19317        60.64145         0.53562
C         30.41088        62.76488         0.20900
C         29.22660        63.53906         0.71079
C         30.24077        65.64118        -0.51606
C         29.02100        64.87930         0.02965
C         30.40492        67.03775         0.06040
C         29.28147        67.66129         0.76679
C         30.48428        69.92344         0.56673
C         29.35022        69.13984         1.14537
C         30.63977        71.29101         1.18272
C         29.33506        72.04584         1.14654
C         30.60138        74.16373         1.05820
C         29.35867        73.47365         1.15789
C         32.85085        52.81597        -0.14829
C         32.80941        54.21679        -0.29718
C         31.63296        54.94841        -0.12344
C         32.85663        57.09539        -0.31334
C         31.61377        56.37935        -0.16046
C         32.85780        58.51707        -0.21068
C         31.65431        59.21197         0.02723
C         32.89098        61.40709        -0.18282
C         31.72366        60.66397         0.40231
C         32.86129        62.78871        -0.32319
C         31.60620        63.52622        -0.15337
C         32.74082        65.60973        -0.99639
C         31.54586        64.87093        -0.42765
C         32.76876        67.08777        -0.65045
C         31.60942        67.74376        -0.23400
C         32.84035        70.04951        -0.52048
C         31.59169        69.24138        -0.15749
C         32.95374        71.37385         0.22064
C         31.83471        72.04787         0.68766
C         33.06162        74.16513         0.83035
C         31.84848        73.49158         0.88810
C         35.33995        48.54479         0.18446
C         35.32149        49.96878         0.08458
C         34.10155        50.68993        -0.00879
C         35.32385        52.81740        -0.26428
C         34.06972        52.08661        -0.16733
C         35.32935        54.21120        -0.44830
C         34.04847        54.92677        -0.79830
C         35.30202        57.09221        -0.46430
C         34.08344        56.40054        -0.47776
C         35.31441        58.52792        -0.42696
C         34.09617        59.24031        -0.34062
C         35.31129        61.36051        -0.62987
C         34.09907        60.67015        -0.39117
C         35.30410        62.79310        -0.74475
C         34.07531        63.50781        -0.62711
C         35.26941        65.63010        -0.91334
C         34.06009        64.91477        -0.76006
C         35.29935        67.06862        -0.94133
C         34.00896        67.84829        -1.09761
C         35.31888        69.90677        -0.48772
C         34.11065        69.24246        -0.52416
C         35.37678        71.33524        -0.18671
C         34.21929        72.02907         0.19894
C         35.52462        74.14642         0.32997
C         34.34177        73.38883         0.84377
C         37.79169        44.26753         0.48812
C         37.73926        45.67511         0.51195
C         36.55466        46.39347         0.31976
C         37.79861        48.53788         0.30286
C         36.53268        47.82212         0.29691
C         37.79842        49.97615         0.16136
C         36.55722        50.68409         0.07364
C         37.77239        52.82825        -0.13238
C         36.55699        52.11333        -0.09352
C         37.77952        54.22190        -0.34582
C         36.54863        54.92879        -0.47504
C         37.78265        57.05171        -0.50229
C         36.56681        56.37111        -0.51578
C         37.84250        58.53264        -0.22327
C         36.54658        59.25380        -0.48912
C         37.82476        61.42356        -0.59468
C         36.54010        60.63162        -0.63090
C         37.71268        62.68371        -1.46587
C         36.50075        63.50087        -1.04882
C         37.69253        65.64713        -1.48972
C         36.48852        64.89289        -1.07910
C         37.77415        67.07999        -1.14537
C         36.52305        67.76756        -0.92475
C         37.78515        69.88632        -0.75967
C         36.56155        69.19396        -0.73226
C         37.81606        71.31945        -0.58156
C         36.62631        72.02302        -0.27638
C         37.87548        74.15836        -0.36154
C         36.65343        73.46771        -0.10695
C         40.24250        40.01406         0.80212
C         40.22278        41.39624         0.68952
C         39.01895        42.14304         0.64416
C         40.27312        44.28271         0.67306
C         39.00549        43.54709         0.60618
C         40.26555        45.68886         0.70102
C         38.97616        46.42929         0.94234
C         40.25778        48.52879         0.35657
C         38.99954        47.85521         0.46644
C         40.26065        49.96313         0.10457
C         39.02188        50.66533         0.12183
C         40.27587        52.79641        -0.34387
C         39.05815        52.15687         0.26207
C         40.25450        54.18479        -0.59173
C         39.02528        54.92606        -0.49161
C         40.25312        57.02815        -0.85894
C         39.02180        56.33316        -0.60092
C         40.25787        58.47469        -1.00492
C         39.05703        59.21913        -0.80756
C         40.24152        61.31446        -1.24779
C         39.04994        60.60924        -0.94643
C         40.23644        62.75190        -1.43194
C         39.01554        63.44599        -1.48559
C         40.24381        65.64963        -1.65686
C         38.99910        64.89037        -1.71982
C         40.25680        67.04465        -1.41823
C         38.99680        67.75005        -1.13996
C         40.24604        69.88561        -0.93826
C         39.02956        69.18115        -0.93929
C         40.27100        71.30930        -0.88057
C         39.05124        72.02017        -0.70489
C         40.29714        74.14953        -0.73986
C         39.05898        73.46240        -0.62136
C         42.62487        35.62818         0.76445
C         42.67738        37.13877         0.77199
C         41.48940        37.85433         0.74643
C         42.70720        39.95691         0.96863
C         41.48078        39.27378         0.83112
C         42.66900        41.44027         1.24506
C         41.54330        42.10317         0.45619
C         42.72681        44.29347         0.80570
C         41.50530        43.59269         0.70154
C         42.73124        45.71370         0.74111
C         41.48625        46.40822         0.66702
C         42.74011        48.62906         0.60447
C         41.46134        47.83479         0.51683
C         42.70763        49.80606        -0.37445
C         41.45212        50.63297        -0.20893
C         42.65991        52.69579        -0.92593
C         41.46516        52.03946        -0.52135
C         42.68296        54.10739        -1.05935
C         41.45850        54.86631        -0.93594
C         42.64491        56.99056        -1.50206
C         41.42850        56.28126        -1.08207
C         42.71147        58.45420        -1.38390
C         41.46303        59.17003        -1.26770
C         42.67880        61.30876        -1.53321
C         41.46526        60.59935        -1.36100
C         42.69610        62.72178        -1.61388
C         41.47844        63.43347        -1.61715
C         42.73853        65.60493        -1.46285
C         41.49562        64.89131        -2.01435
C         42.73131        67.09326        -1.87952
C         41.47196        67.75559        -1.39126
C         42.77895        69.92401        -1.25244
C         41.54968        69.13897        -0.81470
C         42.73616        71.33481        -1.25487
C         41.51585        72.01959        -1.02277
C         42.73260        74.17584        -0.84519
C         41.49976        73.46531        -0.92277
C         45.21806        32.91696         0.10173
C         43.99132        33.59087         0.25860
C         45.17073        35.68793         0.61148
C         43.95703        34.95967         0.51859
C         45.16610        37.11328         0.81411
C         43.92318        37.82654         0.86169
C         45.18463        39.95224         1.08509
C         43.93079        39.25011         0.97025
C         45.19196        41.41478         1.06772
C         43.98443        42.13879         1.00364
C         45.21787        44.23014         0.76358
C         43.98599        43.54639         0.87561
C         45.26594        45.72644         0.93909
C         43.97791        46.45080         0.63908
C         45.23735        48.51384         0.08058
C         44.00314        47.81284         0.43316
C         45.21911        49.81644        -0.38700
C         43.97241        50.67655        -0.25410
C         45.18343        52.66445        -1.18747
C         43.89744        51.87423        -1.24257
C         45.16079        54.04535        -1.16990
C         43.93324        54.77295        -1.21136
C         45.18552        56.99143        -1.25756
C         43.97664        56.21328        -1.50819
C         45.18658        58.39219        -1.29047
C         43.93249        59.10625        -1.44674
C         45.08667        61.30235        -0.98086
C         43.98112        60.58309        -1.72184
C         45.11348        62.77081        -1.16459
C         43.98738        63.42858        -1.55938
C         45.24551        65.63711        -1.36741
C         44.03692        64.90193        -1.90543
C         45.23250        67.06852        -1.37934
C         44.00855        67.79895        -1.48182
C         45.30568        69.89612        -1.65729
C         43.98839        69.20457        -1.40410
C         45.28607        71.41165        -1.46499
C         43.96001        72.15692        -1.65387
C         45.13657        74.19576        -0.59309
C         43.95891        73.52842        -0.98082
C         46.41362        33.60370         0.21747
C         47.63260        35.72854         0.57541
C         46.41646        35.00181         0.47070
C         47.64322        37.10857         0.80040
C         46.38679        37.81937         0.92086
C         47.67146        39.94508         1.43337
C         46.38345        39.23830         1.08616
C         47.69215        41.40443         1.05534
C         46.42441        42.11083         0.94865
C         47.71062        44.15934         0.33589
C         46.41480        43.50687         0.74200
C         47.70499        45.66622         0.36425
C         46.49965        46.38743         0.37508
C         47.72725        48.42688        -0.19883
C         46.49435        47.76695         0.07955
C         47.75080        49.80053        -0.60703
C         46.45269        50.42891        -0.91670
C         47.74183        52.61266        -1.25852
C         46.44975        51.91333        -1.31119
C         47.72604        54.07311        -1.45607
C         46.42255        54.81585        -1.34979
C         47.65148        57.02086        -0.97019
C         46.39128        56.23294        -0.78836
C         47.63879        58.41551        -0.88499
C         46.40522        59.11460        -1.01927
C         47.63651        61.34408        -0.77335
C         46.37575        60.56692        -0.77725
C         47.61836        62.73076        -0.75879
C         46.31127        63.48470        -0.58641
C         47.61155        65.62246        -0.73919
C         46.38489        64.94007        -0.96985
C         47.64243        67.03497        -0.78314
C         46.45263        67.76679        -1.05038
C         47.59966        69.85869        -0.48154
C         46.46623        69.18519        -0.97603
C         47.48509        71.30537        -0.07044
C         46.45253        72.09898        -0.84151
C         47.55526        74.17400        -0.09005
C         46.37728        73.53823        -0.46430
C         48.87709        37.83127         0.82983
C         50.13479        39.93364         0.96376
C         48.92748        39.21369         1.01764
C         50.16215        41.35599         1.02240
C         48.89155        42.07052         1.02468
C         50.19081        44.22625         0.66186
C         48.89739        43.58060         1.10048
C         50.19188        45.59433         0.32969
C         48.94096        46.32623         0.20749
C         50.20052        48.40472        -0.24239
C         48.95771        47.71993        -0.06486
C         50.20756        49.79390        -0.55493
C         48.95571        50.49452        -0.76924
C         50.19097        52.65383        -0.94234
C         48.95233        51.93349        -1.03703
C         50.23356        54.07465        -0.88315
C         49.00632        54.83047        -1.25124
C         50.07320        56.98775        -0.35458
C         48.93252        56.29887        -1.01209
C         50.05644        58.45918        -0.38333
C         48.88728        59.15541        -0.63030
C         50.07961        61.31335        -0.53273
C         48.89043        60.61337        -0.65308
C         50.16007        62.77604        -0.89743
C         48.84378        63.48981        -0.68037
C         50.14747        65.62520        -0.60169
C         48.83323        64.86848        -0.57493
C         50.00962        67.03512        -0.11071
C         48.84383        67.73480        -0.37549
C         49.98151        69.86256         0.24507
C         48.77918        69.15865        -0.14533
C         49.98972        71.31014         0.21474
C         48.80397        72.03100         0.00150
C         50.01487        74.14091         0.21387
C         48.79847        73.45715         0.03728
C         51.36345        42.06811         0.93381
C         52.62916        44.17509         0.55356
C         51.40994        43.49247         0.73877
C         52.66129        45.56969         0.30408
C         51.42452        46.28637         0.16279
C         52.66966        48.38772        -0.20462
C         51.43413        47.69290        -0.10485
C         52.67565        49.78476        -0.45970
C         51.45084        50.45952        -0.66230
C         52.66198        52.59981        -0.41737
C         51.49063        51.90686        -1.07466
C         52.65978        54.08469        -0.31015
C         51.40361        54.79631        -0.61750
C         52.62529        57.01898        -0.27412
C         51.37754        56.23585        -0.25822
C         52.60339        58.40556        -0.15802
C         51.30791        59.12191         0.00888
C         52.58966        61.33544        -0.22109
C         51.30242        60.63940        -0.09359
C         52.56606        62.76183        -0.12776
C         51.35491        63.47247        -0.28174
C         52.41918        65.50861         0.55487
C         51.31065        64.85605        -0.01341
C         52.30582        66.91273         1.02224
C         50.98688        67.66793         0.84020
C         52.37342        69.84539         0.86041
C         51.14238        69.15857         0.59645
C         52.40465        71.27841         0.72771
C         51.21508        72.00369         0.43914
C         52.45669        74.12799         0.56587
C         51.22902        73.44081         0.40075
C         53.88464        46.27854         0.19863
C         55.13794        48.37882        -0.05986
C         53.91654        47.67114        -0.02961
C         55.19598        49.78544        -0.27012
C         53.94924        50.50849        -0.49561
C         55.18783        52.67741        -0.57421
C         53.95372        51.88898        -0.52735
C         55.14659        54.15327        -0.38112
C         53.94159        54.81553        -0.36010
C         55.13607        57.00370        -0.21630
C         53.88910        56.29431        -0.67732
C         55.10819        58.49174        -0.18821
C         53.80356        59.19647        -0.26029
C         55.05328        61.40717        -0.48224
C         53.78969        60.60485        -0.24112
C         55.01691        62.78589         0.13824
C         53.77261        63.46599         0.19391
C         54.89715        65.52167         0.90126
C         53.69701        64.84167         0.60006
C         54.90553        66.93493         1.45152
C         53.56663        67.67112         1.33235
C         54.80189        69.85708         1.29121
C         53.57865        69.15009         1.16934
C         54.79708        71.27974         1.24820
C         53.62163        71.98817         0.94250
C         54.88497        74.12573         0.91691
C         53.65434        73.43684         0.81978
C         56.39485        50.48730        -0.11247
C         57.73845        52.67645         0.05949
C         56.50261        51.91653        -0.39279
C         57.66461        54.18138        -0.15169
C         56.42255        54.87326        -0.33445
C         57.62356        57.02686        -0.19543
C         56.42621        56.28063        -0.34213
C         57.61966        58.46351        -0.20786
C         56.36933        59.21334        -0.61340
C         57.49618        61.35021        -0.00696
C         56.33939        60.66756        -0.21057
C         57.48624        62.76725         0.33767
C         56.20854        63.44955         0.44587
C         57.37603        65.55732         0.93770
C         56.16663        64.85891         0.79023
C         57.41193        67.04539         1.18248
C         56.06393        67.70631         0.80657
C         57.28160        69.82519         1.25384
C         56.08186        69.16346         1.21351
C         57.33053        71.23872         1.67404
C         56.02287        72.02067         1.58453
C         57.29324        74.14682         1.39463
C         56.09127        73.47278         1.28077
C         58.84202        54.90343        -0.02468
C         60.06058        57.06924         0.10705
C         58.86515        56.33060        -0.04803
C         60.05259        58.47927         0.11547
C         58.79720        59.16767        -0.04572
C         60.00764        61.36164         0.25307
C         58.80457        60.65580        -0.29818
C         59.94894        62.73433         0.53333
C         58.67755        63.42325         0.60390
C         59.92183        65.60073         0.84599
C         58.66344        64.81879         1.17380
C         59.90086        67.04165         0.80058
C         58.58645        67.71358         0.43587
C         59.77443        69.82766         1.42931
C         58.56577        69.27440         0.63938
C         59.77773        71.34258         1.36012
C         58.59256        71.99949         1.55567
C         59.74461        74.18715         1.32975
C         58.54961        73.47834         1.88086
C         61.25283        59.23687         0.24288
C         62.43551        61.39060         0.59653
C         61.24094        60.64757         0.34292
C         62.41028        62.76817         0.74175
C         61.16565        63.46926         0.72946
C         62.36938        65.67368         0.41688
C         61.12217        64.90020         0.76528
C         62.38550        67.03838         1.09786
C         61.07929        67.77227         0.88093
C         62.24225        69.94947         0.86509
C         61.07766        69.20374         0.98497
C         62.22801        71.38260         1.03597
C         61.02369        72.06653         1.22342
C         62.09051        74.23726         0.66123
C         60.95096        73.52181         1.08821
C         63.69630        63.49991         1.06609
C         64.82028        65.68526         0.58732
C         63.68138        64.96074         0.68346
C         64.77892        67.13859         0.37222
C         63.58192        67.81227         0.61291
C         64.78729        69.96834         0.59238
C         63.47293        69.27466         0.28860
C         64.80230        71.44015         0.84636
C         63.49232        72.15454         1.04269
C         64.63561        74.45869         0.36084
C         63.41857        73.66171         0.82376
C         65.94258        67.85343        -0.01676
C         67.11705        69.99471        -0.29786
C         65.99160        69.27323         0.04486
C         67.20632        71.45832        -0.15903
C         66.01547        72.23810         0.43837
C         66.83591        74.23793        -0.74231
C         65.84953        73.63438        -0.01167
C         68.10203        72.18019        -1.06958
C         67.95812        73.51579        -1.27426
O         30.43864        69.84588        -0.88851
O         47.00439        54.56756        -2.65190
O         52.72438        67.14706         2.43343
O         43.24417        56.52577        -2.74683
O         52.47138        53.19464         0.89646
O         63.58905        73.08492         2.17168
O         46.36410        50.83969        -2.34065
O         29.68213        68.15225         2.13988
O         46.38617        71.96124        -2.29936
O         49.29521        55.77212        -2.35436
O         64.99301        70.47442         1.93834
O         56.04860        52.31479        -1.72518
O         67.20276        71.97206         1.22620
O         27.89123        65.06017        -0.86565
O         51.18207        59.94595         1.20868
O         55.13884        57.71523         1.06556
O         38.11105        65.30760        -2.84902
O         45.42040        60.87785         0.37268
O         50.50004        56.45794         0.93360
O         56.57753        71.60008         2.88375
O         42.70299        67.19044        -3.34194
H         43.54727        66.78768        -3.66591
O         32.66971        70.45402        -1.92807
H         31.70713        70.65121        -2.03547
O         42.64037        65.51883        -0.03224
H         43.40796        65.97913         0.36813
O         44.16203        64.97386        -3.35575
H         43.34036        64.56252        -3.72999
O         46.94684        71.27777         1.29776
H         47.59614        70.80688         1.86278
O         39.18250        52.39861         1.72720
H         38.43774        51.92919         2.16090
O         41.53180        64.86890        -3.48044
H         41.58288        65.81685        -3.77354
O         32.59743        65.55870        -2.45363
H         31.66765        65.82408        -2.66015
O         29.61652        63.93324         2.07509
H         29.91204        63.12684         2.54895
O         58.92351        60.75758        -1.78385
H         59.80737        60.40140        -2.02148
O         47.70933        39.94933         2.91264
H         47.72932        39.01184         3.20116
O         33.85697        68.05314        -2.54654
H         33.34418        68.89253        -2.66756
O         37.46885        62.24311        -2.83093
H         37.45306        63.04614        -3.39729
O         46.24277        55.99853         0.66889
H         46.26284        56.87257         1.11516
O         41.86855        41.92685        -0.95287
H         41.16107        42.35142        -1.48142
O         38.00498        61.87049         0.77682
H         38.01518        61.06705         1.34330
O         58.88487        52.13613        -0.61230
H         58.70953        52.18322        -1.57539
O         64.82874        62.83201         0.49916
H         64.78598        62.92230        -0.47430
O         33.95914        54.86411        -2.26957
H         33.89628        53.91670        -2.51597
O         55.17272        66.82700         2.87647
H         54.30398        66.64050         3.30717
O         64.28763        75.27962        -0.75808
H         63.80332        76.06612        -0.43772
O         50.39426        62.84843        -2.36248
H         49.63595        62.41049        -2.80609
O         48.71959        43.93259         2.50282
H         49.37080        43.42201         3.02766
O         42.66322        49.19747        -1.68313
H         42.83576        49.91359        -2.34873
O         55.06776        61.64816        -1.93473
H         55.31842        60.78808        -2.35570
O         42.78138        49.15887         1.97428
H         42.65051        48.40754         2.59127
O         41.64214        35.15991        -0.17105
H         41.92178        35.43481        -1.06807
O         44.36231        60.72047        -3.13490
H         43.70798        60.22476        -3.67165
O         45.40960        45.88990         2.40527
H         45.64717        46.82611         2.57667
O         56.36946        59.21731        -2.08416
H         57.21656        59.65240        -2.35023
O         41.74085        68.94580         0.64858
H         41.63284        69.82406         1.07286
O         59.56878        69.45534         2.81330
H         60.18864        69.97270         3.36794
O         46.06183        63.50410         0.86180
H         45.87412        62.56675         1.12110
O         34.63911        73.11820         2.29064
H         35.47298        72.60040         2.31447
O         63.33523        69.37040        -1.17301
H         62.73607        68.64825        -1.46146
O         43.82168        72.41537        -3.07580
H         44.72042        72.63490        -3.40846
O         58.69795        64.65497         2.64507
H         58.57921        65.56706         3.01308
O         58.65482        69.88970        -0.67524
H         57.76331        69.87406        -1.08386
O         62.53348        66.80779         2.52543
H         62.56462        67.67852         2.97399
O         62.29692        65.94213        -1.01893
H         62.18066        65.08452        -1.47897
O         50.27293        67.58238         2.12675
H         50.96736        67.62018         2.82700
O         51.81947        51.93172        -2.50862
H         51.07703        51.51395        -2.99459
O         42.34521        41.61085         2.65667
H         43.09197        41.25481         3.18212
O         55.81738        67.62886        -0.61583
H         56.68604        67.52208        -1.08051
O         57.71712        67.26085         2.58075
H         56.87831        67.13612         3.09263
O         29.99506        65.85495        -1.94599
H         29.01675        65.75558        -2.07257
O         53.94852        56.37360        -2.14502
H         53.22883        55.81897        -2.51486
O         44.04049        51.30481         1.04528
H         43.73065        50.65348         1.72113
O         58.57435        73.56094         3.35470
H         57.84889        72.96874         3.66756
O         43.75019        51.39597        -2.61314
H         44.65357        51.10458        -2.90534
O         31.99437        60.64100         1.86701
H         31.33878        60.03084         2.26871
O         30.92382        71.03319         2.59994
H         31.10672        71.89578         3.02954
O         58.42474        67.43494        -0.98079
H         58.99641        68.07613        -1.46247
O         47.88166        43.80027        -1.06991
H         48.70760        44.22241        -1.38939
O         45.55270        69.66802        -3.08019
H         46.23542        70.32459        -3.35031
O         38.87125        46.52330         2.41734
H         38.81914        45.60473         2.75902
O         38.03173        58.65420         1.24341
H         38.78525        58.07519         1.48934
O         50.48699        65.73075        -2.03296
H         50.55576        64.80598        -2.38112
H         23.23454        75.27234         2.01440
H         25.68500        75.27614         1.62644
H         28.13545        75.27225         1.28230
H         30.60013        75.26226         1.11726
H         33.09604        75.25969         0.93349
H         35.56966        75.23524         0.48344
H         37.89836        75.25448        -0.27300
H         40.30934        75.24550        -0.64598
H         42.71001        75.23196        -0.53400
H         45.05868        75.24624        -0.27083
H         47.55303        75.25977         0.08859
H         50.02297        75.24083         0.21798
H         52.47126        75.22583         0.49910
H         54.90259        75.21184         0.74295
H         57.31934        75.22901         1.19553
H         59.70391        75.28104         1.21433
H         61.98253        75.28269         0.33669
H         64.93147        75.13487         1.21566
H         66.70859        75.28995        -1.03459
H         22.32130        69.37374         2.27391
H         21.11065        71.53014         2.45067
H         21.12187        74.01845         2.40165
H         24.73917        65.08014         2.03574
H         23.52973        67.22617         2.14397
H         27.05346        60.78108         0.92993
H         25.87349        62.88906         1.48914
H         29.48224        56.55211         0.19225
H         28.29108        58.68186         0.60210
H         31.91616        52.27503         0.06721
H         30.70046        54.41688         0.12319
H         34.38216        48.00292         0.16653
H         33.15190        50.13717         0.05010
H         36.85791        43.70191         0.34255
H         35.61515        45.84734         0.14147
H         39.29450        39.45630         0.85627
H         38.05891        41.60362         0.66902
H         42.26265        35.29632         1.77986
H         40.53683        37.31165         0.65698
H         45.22045        31.83705        -0.10234
H         43.04569        33.03680         0.17655
H         47.37230        33.07670         0.10750
H         48.58686        35.19283         0.46055
H         49.81063        37.27891         0.63997
H         51.07720        39.39018         0.79293
H         52.31278        41.51161         0.91968
H         53.57629        43.62002         0.62339
H         54.83221        45.73317         0.32178
H         56.07632        47.82863         0.10632
H         57.28097        49.96305         0.27532
H         57.89278        52.48687         1.15679
H         59.78423        54.35763         0.13197
H         61.01618        56.53475         0.21425
H         62.20992        58.70336         0.33874
H         63.39659        60.86028         0.66599
H         63.83199        63.44794         2.18339
H         65.79994        65.19889         0.71079
H         66.85249        67.29915        -0.29043
H         67.97740        69.46971        -0.74209
H         68.87017        71.60780        -1.61053
H         68.65157        74.04903        -1.93979
