         470
 CSIRO Nanostructure Databank - Neutral Graphene Oxide Data Set
C         37.79380        50.04663        -1.52326
C         36.58384        50.58072        -1.24527
C         37.57027        52.64246        -0.39578
C         36.46024        51.90846        -0.69618
C         40.30394        48.57555        -1.01130
C         40.24783        50.00952        -0.85147
C         39.07376        50.82778        -1.37701
C         40.03235        52.82121        -0.19691
C         38.90121        52.12925        -0.60050
C         40.01729        54.18191         0.27447
C         42.57522        48.45380        -0.08032
C         41.42613        47.85409        -0.70791
C         42.44551        49.89668         0.25516
C         41.31206        50.66909        -0.29561
C         42.51285        52.84839         0.34694
C         41.38538        52.18017        -0.41188
C         42.46483        54.24314         0.57803
C         41.16227        54.87612         0.54989
C         44.98585        45.61078         0.33075
C         43.86911        46.32897         0.02672
C         44.86507        48.43857         1.00808
C         43.73436        47.75167         0.24403
C         44.94614        49.91556         0.70292
C         43.70826        50.66218         0.62552
C         44.89342        52.85274         0.83966
C         43.70913        52.14498         0.55988
C         44.88556        54.25263         0.99651
C         43.66094        54.95949         0.90680
C         44.83541        57.13095         1.09229
C         43.69336        56.40998         0.95164
C         47.71342        44.14504         0.49025
C         47.57047        45.56177         0.86671
C         46.21579        46.25659         0.83054
C         47.49559        48.49530         0.83718
C         46.20404        47.75669         0.72023
C         47.46509        49.92855         1.26801
C         46.16154        50.64769         1.07335
C         47.44744        52.86790         0.81658
C         46.17351        52.11175         0.78358
C         47.43832        54.32229         1.05774
C         46.14653        54.96434         1.32823
C         47.43097        57.19816         1.21123
C         46.13336        56.49941         1.39641
C         47.44820        58.61355         0.95082
C         50.13896        44.26719         0.69641
C         48.94338        43.53924         0.43645
C         50.06126        45.69680         0.71784
C         48.81127        46.38346         0.82465
C         50.01107        48.54760         0.83055
C         48.79941        47.78067         0.89019
C         50.03379        49.98004         0.95156
C         48.76767        50.69047         1.27644
C         49.93969        52.87338         0.53319
C         48.73378        52.17073         1.11321
C         49.90162        54.36612         0.81856
C         48.64420        55.03135         1.06667
C         49.92174        57.18090         1.22194
C         48.62691        56.47634         1.18743
C         49.90609        58.73260         1.07300
C         48.59952        59.32483         0.79454
C         52.49321        41.43388         0.33227
C         51.48009        42.10774         0.91914
C         52.47362        44.28351         0.21266
C         51.45917        43.60735         1.07347
C         52.41056        45.72204         0.07295
C         51.23360        46.46275         0.52373
C         52.46686        48.62363         0.43765
C         51.24372        47.87197         0.59805
C         52.45076        50.04296         0.49972
C         51.21383        50.70939         0.79247
C         52.41605        52.89734         0.37522
C         51.24305        52.21168         1.02876
C         52.28993        54.33626         0.16855
C         51.09465        55.07910         0.64434
C         52.39060        57.21515         0.73261
C         51.15795        56.48720         0.82893
C         52.39255        58.68192         0.73397
C         51.16685        59.40113         0.68774
C         52.36375        61.46061         0.17620
C         51.17704        60.77383         0.37907
C         54.84954        39.96272        -0.74382
C         54.78672        41.41636        -0.62119
C         53.64209        42.08814        -0.27121
C         54.90513        44.23638        -0.18607
C         53.55658        43.57341        -0.55657
C         54.94950        45.68159         0.16831
C         53.71360        46.50220        -0.00413
C         54.90771        48.66857         0.12433
C         53.71267        47.95628         0.27085
C         54.87723        50.09333         0.02231
C         53.65470        50.77841         0.24062
C         54.84266        52.96004        -0.09635
C         53.60949        52.22772         0.13802
C         54.87014        54.36148         0.03022
C         53.61794        55.12816         0.04945
C         54.88390        57.17572         0.71396
C         53.59819        56.52264         0.50320
C         54.89268        58.72778         0.73142
C         53.60437        59.40700         0.56622
C         54.86393        61.52501         0.18129
C         53.60720        60.80245         0.30256
C         54.90149        62.93489         0.10875
C         57.23972        40.10500        -0.34301
C         56.02897        39.30717        -0.75167
C         57.29022        41.40015        -1.17289
C         55.96715        42.19088        -1.20559
C         57.35126        44.29084        -0.77979
C         56.15107        43.59017        -0.65436
C         57.42252        45.71656        -0.44064
C         56.25172        46.41072         0.11665
C         57.38957        48.62004        -0.42116
C         56.20421        47.93683         0.08515
C         57.29129        50.05874        -0.71567
C         56.07202        50.82697        -0.35391
C         57.28762        53.01394        -0.60356
C         56.05708        52.22197        -0.36341
C         57.32869        54.41694        -0.15208
C         56.11594        55.09213         0.08782
C         57.33579        57.22661         0.25819
C         56.13066        56.49530         0.33683
C         57.33772        58.68043         0.23744
C         56.13421        59.40303         0.33000
C         57.32292        61.51055        -0.14335
C         56.10349        60.81387         0.12200
C         57.32944        62.95122        -0.20244
C         56.09327        63.62546        -0.03970
C         59.71117        37.14246        -0.38476
C         58.59969        37.86963        -0.17010
C         59.84550        40.03898        -0.63759
C         58.57426        39.35367        -0.27178
C         59.92986        41.40299        -1.30779
C         58.58587        42.14142        -1.32762
C         59.82819        44.26614        -0.97493
C         58.59667        43.61139        -1.12653
C         59.81436        45.74851        -1.01580
C         58.57266        46.46153        -0.66345
C         59.85347        48.63150        -0.60991
C         58.57768        47.91362        -0.61827
C         59.85656        50.07189        -0.48636
C         58.63256        50.80469        -0.83442
C         59.84062        52.98333        -0.29740
C         58.62088        52.29702        -0.75668
C         59.81775        54.39530        -0.10202
C         58.56858        55.10731        -0.07384
C         59.80664        57.23787         0.16365
C         58.56412        56.52293         0.09822
C         59.81592        58.68135         0.04934
C         58.56009        59.38356        -0.03322
C         59.75563        61.45694        -0.74857
C         58.52996        60.77646        -0.27730
C         59.73063        62.95816        -1.01994
C         58.55511        63.66237        -0.37794
C         59.83965        65.73235        -0.43823
C         58.65422        65.04861        -0.18985
C         62.30046        35.57662        -0.20066
C         62.29848        36.97798        -0.64485
C         61.00598        37.73663        -0.81612
C         62.34002        39.96851        -0.61543
C         61.08088        39.23295        -0.91785
C         62.28879        41.42731        -0.51620
C         61.11835        42.16520        -0.77427
C         62.31773        44.31750        -0.55779
C         61.08968        43.58415        -0.80943
C         62.34020        45.73127        -0.51145
C         61.12318        46.50398        -0.82821
C         62.24205        48.58603         0.13747
C         61.04607        47.92633        -0.48678
C         62.28744        50.08027        -0.06256
C         61.02533        50.79442        -0.16391
C         62.21676        52.93928         0.35308
C         60.99745        52.22587        -0.05666
C         62.26604        54.40694         0.26888
C         61.03715        55.11128         0.14499
C         62.26678        57.26454         0.64830
C         61.00912        56.53289         0.25013
C         62.28092        58.72537         0.24480
C         61.04098        59.37325        -0.00910
C         62.33045        61.52385        -0.43551
C         61.07553        60.74838        -0.53273
C         62.31912        62.92496        -0.71392
C         61.06946        63.65071        -0.80668
C         62.28684        65.82090        -1.01277
C         61.05080        65.05113        -0.74112
C         62.38333        67.24656        -0.67112
C         64.72806        35.64010         0.22635
C         63.46431        34.94232         0.08212
C         64.74492        37.06493         0.19853
C         63.58136        37.78215        -0.37718
C         64.65932        39.99178         0.19792
C         63.48162        39.26025        -0.29811
C         64.68833        41.44364        -0.02821
C         63.51729        42.14746        -0.27612
C         64.75756        44.29599        -0.11329
C         63.53867        43.59842        -0.33006
C         64.76431        45.72800        -0.04599
C         63.53509        46.43812        -0.20073
C         64.76155        48.54363         0.02335
C         63.54985        47.86263        -0.09147
C         64.77350        50.00880        -0.17600
C         63.49089        50.74155        -0.05129
C         64.77659        52.97374         0.15073
C         63.52496        52.17902         0.26295
C         64.71637        54.39151         0.55768
C         63.51566        55.08130         0.42163
C         64.75243        57.32279         0.56060
C         63.52099        56.56410         0.14535
C         64.73145        58.68886         0.49108
C         63.49260        59.41953         0.22207
C         64.73410        61.58835         0.02668
C         63.51586        60.85455        -0.04433
C         64.75310        62.93865        -0.37632
C         63.56878        63.61403        -0.74758
C         64.86571        65.83057        -0.92885
C         63.61727        65.05254        -1.10643
C         64.85149        67.20950        -0.71154
C         63.57239        67.88570        -0.58080
C         67.14663        32.79095         0.46434
C         65.99845        33.51651         0.30942
C         67.05511        35.66186         1.19970
C         65.91711        34.92345         0.51815
C         67.15374        37.10183         0.75685
C         65.95636        37.76863         0.48436
C         67.21955        39.98851         0.79256
C         65.89999        39.25074         0.59606
C         67.25093        41.36168         0.13944
C         65.98495        42.12018        -0.11954
C         67.20197        44.23177         0.30799
C         66.00970        43.58510        -0.00597
C         67.16286        45.67354         0.59212
C         65.96357        46.44232         0.22720
C         67.25526        48.58554         0.39161
C         66.00334        47.85321         0.20410
C         67.29032        50.00893         0.34222
C         66.07950        50.75122        -0.06157
C         67.23978        52.87884         0.85194
C         66.08318        52.24936         0.09081
C         67.28279        54.37946         0.70051
C         65.98938        55.07728         0.87091
C         67.28810        57.28163         0.68830
C         65.99542        56.59571         0.88887
C         67.28143        58.70861         0.63104
C         65.99061        59.43125         0.74195
C         67.28355        61.57818         0.28848
C         65.97887        60.92586         0.50400
C         67.26950        63.03470         0.07798
C         66.06317        63.61722        -0.58320
C         67.43080        65.82985        -0.91417
C         66.12744        65.07089        -0.96146
C         67.38725        67.30841        -0.67346
C         66.07311        67.96081        -0.49932
C         67.27054        70.02410         0.03814
C         66.08464        69.32169        -0.16515
C         69.72911        31.58965        -0.32374
C         69.71085        32.70344         0.63343
C         68.40495        33.40737         0.93185
C         69.68179        35.67721         1.22140
C         68.38472        34.89036         1.23443
C         69.66114        37.08189         0.76285
C         68.43337        37.78557         0.64832
C         69.66236        39.94579         0.17562
C         68.42671        39.17959         0.38684
C         69.69374        41.39967         0.47303
C         68.48597        42.12894         0.40208
C         69.70754        44.24230         0.59039
C         68.45917        43.53354         0.46014
C         69.74077        45.66600         0.60074
C         68.48120        46.41628         0.74040
C         69.72988        48.53337         0.55963
C         68.47943        47.87139         0.54591
C         69.73947        49.99309         0.72739
C         68.49061        50.74670         0.55308
C         69.75196        52.90218         0.46220
C         68.53319        52.15806         0.59260
C         69.73862        54.34072         0.45450
C         68.48144        55.07990         0.64962
C         69.74288        57.28373         0.63726
C         68.47470        56.53575         0.65760
C         69.72423        58.73465         0.37725
C         68.48784        59.42973         0.45786
C         69.74789        61.58293         0.19567
C         68.47438        60.87792         0.32533
C         69.79359        62.96976         0.18933
C         68.56698        63.77431         0.07448
C         69.89836        65.86684        -0.20988
C         68.73235        65.04822        -0.74175
C         69.85318        67.29250        -0.11129
C         68.61750        68.01150        -0.24904
C         69.76404        70.14481         0.27936
C         68.54648        69.39245         0.01758
C         69.74800        71.55179         0.42670
C         72.13297        31.82227        -0.65017
C         70.89516        31.11853        -0.84096
C         72.18374        32.98643         0.05013
C         71.03613        33.46392         0.83861
C         72.23617        35.71791         0.91787
C         71.00207        34.93192         1.20301
C         72.19284        36.98872         0.50855
C         70.90478        37.64410         0.07924
C         72.15492        39.93187         0.56906
C         70.97325        39.18660         0.09804
C         72.13214        41.28243         0.72319
C         70.92567        42.07232         0.58913
C         72.15530        44.24657         0.61119
C         70.93643        43.50977         0.62098
C         72.16925        45.62069         0.53219
C         70.95924        46.37373         0.52246
C         72.15837        48.56390         0.21479
C         70.95533        47.82619         0.49294
C         72.20056        49.92592         0.11718
C         71.06559        50.75403         0.52992
C         72.13493        52.92447        -0.09141
C         70.98485        52.20691         0.25315
C         72.11325        54.31498        -0.12902
C         70.94492        55.02987         0.18818
C         72.11634        57.27195        -0.27319
C         71.03062        56.50541         0.34736
C         72.09329        58.62790        -0.31755
C         70.93540        59.41305         0.05312
C         72.12922        61.57008        -0.46215
C         70.96139        60.83078        -0.02670
C         72.19322        62.92413        -0.39595
C         71.11438        63.67463         0.33778
C         72.22931        65.89849         0.46905
C         71.06954        65.17534         0.12179
C         72.22345        67.28261         0.49387
C         71.03888        68.00876         0.24330
C         72.18554        70.20727         0.58804
C         71.00563        69.45686         0.36564
C         72.14479        71.58602         0.72590
C         70.91765        72.26302         0.64751
O         63.61216        56.71658        -1.34691
O         70.37125        39.71666        -1.12549
O         68.34600        33.90569         2.31202
O         59.44265        40.00472         0.76099
O         56.49589        47.18595         1.32917
O         46.83696        48.27897        -0.48510
O         62.87880        52.41265         1.56670
O         62.87153        65.44296        -2.30002
O         57.95601        52.88745        -1.91053
O         46.09810        55.67985         2.60915
O         46.74398        45.75846         2.09471
O         70.44177        35.37363         2.46746
O         65.87860        60.36605         1.86870
O         50.03624        58.07660         2.36913
O         54.90484        44.67305         1.22690
O         60.41858        60.78105        -1.87048
O         65.58404        52.90251        -1.10009
O         60.55164        46.25668        -2.17272
O         67.70087        63.84918         1.25134
O         65.56265        50.35217        -1.37727
O         46.89391        52.42912        -0.49134
O         42.70522        50.19356         1.68010
O         70.55114        50.43029         1.86187
O         67.69151        46.00767         1.92358
O         60.96093        38.42219        -2.11907
O         54.99631        57.94197         1.95743
O         65.91306        55.83902         2.14070
O         46.64577        50.23172         2.42869
O         57.87569        41.49473        -2.49826
O         66.21563        64.00469        -1.98578
O         63.24446        37.24557        -1.71292
O         66.78925        41.48981        -1.23467
O         48.87265        51.60579         2.44338
O         52.76866        54.83853        -1.11247
O         70.54366        32.51463         1.81703
O         67.53534        66.72070        -2.06712
O         64.94672        39.63666         1.66017
O         57.91578        50.34196        -2.01200
O         52.97873        46.21892        -1.21024
O         70.69279        56.91795         1.70979
O         62.45768        56.05363        -1.95274
H         62.73503        56.01879        -2.90060
O         51.73109        43.91616         2.48060
H         51.01623        43.51988         3.02136
O         39.45850        51.22358        -2.75087
H         38.71942        51.75480        -3.11726
O         41.75615        52.43004        -1.81338
H         41.03522        52.04341        -2.37696
O         56.95087        40.58188         0.99992
H         57.81290        40.69071         1.46565
O         69.11886        64.58710        -2.06265
H         68.84240        65.28621        -2.69839
O         44.57817        48.27528         2.42071
H         43.81280        48.86471         2.62457
O         62.32904        57.21637         2.10199
H         61.51817        57.63329         2.46034
O         70.72205        37.23138        -1.31179
H         70.35680        38.02220        -1.78442
O         55.58722        42.38263        -2.60669
H         56.42414        42.32436        -3.13363
O         71.46206        63.55053         1.76983
H         71.43085        62.59682         1.99912
O         49.89531        52.67790        -0.90052
H         48.99185        52.89363        -1.21994
O         51.39240        52.45359         2.44829
H         50.58760        52.08892         2.89449
O         59.46714        63.09850        -2.45709
H         60.00415        62.40192        -2.90221
O         53.31070        43.73604        -1.97014
H         54.03805        43.27651        -2.46100
O         67.38682        40.23738         2.21899
H         66.51270        40.06649         2.64446
O         61.99801        48.43663         1.59287
H         62.64896        48.99824         2.06663
O         66.88603        52.62388         2.25422
H         67.56650        53.04323         2.82298
O         60.32724        41.16349        -2.68052
H         59.52202        40.92978        -3.19520
O         66.61106        35.75732         2.59740
H         66.95868        34.95038         3.04849
H         37.84822        49.04586        -1.97441
H         35.66834        49.99926        -1.42645
H         37.44758        53.63209         0.06626
H         35.45799        52.31197        -0.49887
H         39.44830        48.05098        -1.45649
H         39.05503        54.70770         0.35447
H         41.43230        46.77672        -0.92232
H         41.07664        55.93244         0.84000
H         44.97210        44.51827         0.20787
H         43.00142        45.78013        -0.36825
H         44.78250        58.22456         0.99404
H         42.75856        56.95611         0.76219
H         46.80584        43.53467         0.38732
H         46.49164        59.12883         0.78900
H         49.00154        42.45637         0.25200
H         48.54144        60.36230         0.43733
H         52.48338        40.33267         0.35296
H         50.67712        41.53917         1.41363
H         52.32062        62.53213        -0.05725
H         50.23149        61.32920         0.32157
H         53.91139        39.41261        -0.91568
H         53.97144        63.51344         0.18637
H         56.08487        38.22584        -0.93686
H         56.06069        64.72207        -0.08288
H         59.66034        36.05157        -0.25054
H         57.67551        37.35928         0.13881
H         59.84006        66.82496        -0.33589
H         57.78639        65.62131         0.16566
H         61.35265        35.02289        -0.14833
H         61.46436        67.81108        -0.46180
H         63.42494        33.87697         0.34780
H         63.56270        68.95701        -0.34351
H         67.12628        31.71313         0.25432
H         65.10970        32.98845        -0.06524
H         67.19644        71.09382         0.27106
H         65.14395        69.87819        -0.06393
H         68.77922        31.13299        -0.63469
H         68.80227        72.10493         0.35425
H         73.02352        31.47023        -1.18942
H         70.88260        30.25417        -1.51951
H         73.10154        33.59015         0.02236
H         73.20432        35.26162         1.17503
H         73.13704        37.52322         0.33286
H         73.07819        39.38868         0.81254
H         73.05795        41.78460         1.03743
H         73.11389        43.71102         0.63485
H         73.13740        46.13812         0.50750
H         73.06580        48.00194        -0.04660
H         73.10698        50.40649        -0.27702
H         73.08340        52.40135        -0.27173
H         73.04847        54.84926        -0.33912
H         72.96732        56.73995        -0.72046
H         72.96164        59.14470        -0.74735
H         72.97551        61.02204        -0.89948
H         73.08690        63.45891        -0.74911
H         73.14086        65.35023         0.74374
H         73.14674        67.80738         0.77140
H         73.15905        69.70258         0.64355
H         73.07332        72.14895         0.89331
H         70.88446        73.35601         0.75369
