         268
 CSIRO Nanostructure Databank - Neutral Graphene Oxide Data Set
C         -8.90415         0.85675         2.87782
C         -8.52747         1.56112         1.62789
C         -8.41850         0.74072         0.36504
C         -7.75116         1.19123        -0.93836
C         -6.42222         0.47522        -1.13971
C         -5.18602         1.25081        -1.42220
C         -3.84236         0.53421        -1.43618
C         -2.58978         1.25645        -1.00959
C         -1.29774         0.50214        -1.03767
C         -0.06604         1.33143        -1.22406
C          1.22845         0.60318        -1.00127
C          2.48897         1.40246        -1.17832
C          3.79792         0.69766        -1.30814
C          5.05589         1.41129        -0.87313
C          6.37253         0.70891        -0.99286
C          7.66304         1.48168        -0.79430
C          8.88033         0.68036        -0.37162
C          9.84936         1.29391         0.61927
C         10.60188         0.38978         1.52036
C         -7.78058         2.84202         1.81056
C         -8.06901         3.98616         1.21744
C         -7.73077         2.71836        -1.23093
C         -6.45419         3.51827        -1.34893
C         -5.09745         2.77277        -1.50671
C         -4.00508         3.18910        -0.47157
C         -2.60265         2.75390        -0.88707
C         -1.45550         3.49501        -0.78454
C         -0.13865         2.82436        -1.07452
C          1.15241         3.55018        -0.78648
C          2.43083         2.75254        -0.47912
C          3.68088         3.60557        -0.66759
C          5.02808         2.91465        -0.80314
C          6.22564         3.60664        -0.28644
C          7.54730         2.91447        -0.31378
C          8.58661         3.44592         0.61237
C          9.59408         2.67423         1.08004
C         -8.33028         5.18883         0.75984
C         -7.70481         5.81932        -0.48959
C         -6.45197         5.01589        -0.96054
C         -5.15344         5.44503        -0.34086
C         -3.88585         5.22411        -0.97157
C         -2.59381         5.68108        -0.35358
C         -1.45948         4.92029        -0.38735
C         -0.20379         5.53920         0.23700
C          1.10858         4.91465        -0.19943
C          2.36255         5.54285         0.35277
C          3.66641         4.94309        -0.04817
C          4.84546         5.59002         0.21830
C          6.13009         4.91797         0.13074
C          7.30471         5.65162         0.62432
C          8.47076         4.85755         1.16686
C         -7.44379         7.28538        -0.16086
C         -6.31647         8.01132        -0.29079
C         -4.97854         7.54597        -0.79406
C         -3.84632         7.89268         0.17534
C         -2.60868         7.06611         0.24055
C         -1.31142         7.81806         0.46562
C         -0.12567         7.05856        -0.11282
C          1.01327         7.78524         0.62995
C          2.32519         7.01275         0.64902
C          3.57560         7.76895         0.15879
C          4.84427         7.02093         0.71503
C          6.09426         7.77394         0.19484
C          7.29701         7.00242         0.69368
C         -6.23485         9.46182        -0.05604
C         -5.06289        10.10122         0.14435
C         -3.76478         9.39993         0.48713
C         -2.49039         9.97176        -0.10099
C         -1.32912         9.26468        -0.01692
C         -0.02658         9.89112        -0.15122
C          1.12893         9.23369         0.18600
C          2.39224         9.92063         0.36069
C          3.57318         9.24231         0.49864
C          4.85439         9.88660         0.72877
C          6.02931         9.22020         0.63939
C         -9.28575        -0.43141         2.88615
C         -9.11934        -1.33705         1.72519
C         -8.58503        -0.78571         0.43548
C         -7.64630        -1.57830        -0.49598
C         -6.25586        -0.90801        -0.46120
C         -5.02743        -1.72549        -0.90302
C         -3.82429        -0.96891        -1.40438
C         -2.49237        -1.68161        -1.48127
C         -1.21488        -0.94805        -1.38733
C         -0.01411        -1.62387        -1.37265
C          1.25047        -0.88956        -1.07795
C          2.57100        -1.60186        -1.28250
C          3.84474        -0.81102        -1.28342
C          5.09103        -1.43631        -1.89691
C          6.41600        -0.71872        -1.48730
C          7.62340        -1.48335        -1.05332
C          8.85150        -0.82484        -0.46280
C          9.76057        -1.66808         0.42042
C         10.55594        -0.95564         1.44070
C         -8.92017        -2.75552         2.08911
C         -8.26102        -3.65489         1.34641
C         -7.50825        -3.43114         0.04408
C         -5.99980        -3.70216         0.31398
C         -4.89375        -3.00351        -0.41868
C         -3.57826        -3.71513        -0.43439
C         -2.44488        -3.15714        -1.22675
C         -1.13180        -3.81658        -1.13147
C          0.05776        -3.08998        -1.43043
C          1.28658        -3.76493        -1.59948
C          2.51940        -2.96735        -1.98421
C          3.82084        -3.75255        -1.78551
C          5.09305        -2.96972        -1.59856
C          6.06654        -3.47748        -0.57138
C          7.40617        -2.80068        -0.35367
C          8.62659        -3.74521        -0.49547
C          9.64615        -3.17584         0.43198
C         -8.23600        -5.10286         1.79644
C         -7.05773        -5.85934         1.22247
C         -5.81349        -5.07526         0.93263
C         -4.48791        -5.85705         0.90017
C         -3.39029        -5.13510         0.08766
C         -2.29211        -5.89455        -0.56269
C         -1.16343        -5.23577        -1.04972
C         -0.06075        -5.96539        -1.70942
C          1.26861        -5.22261        -1.87309
C          2.59774        -6.05360        -1.89515
C          3.65221        -5.14444        -1.19982
C          4.75979        -5.68871        -0.34170
C          5.93717        -4.82455         0.05142
C          7.17360        -5.52974         0.66815
C          8.52699        -4.73671         0.60775
C         -7.14527        -7.19905         1.08349
C         -5.99540        -8.03216         0.67616
C         -4.67358        -7.33844         0.53436
C         -3.75660        -7.98255        -0.45600
C         -2.53337        -7.28712        -0.95805
C         -1.42607        -8.22877        -1.50385
C         -0.00553        -7.50961        -1.75213
C          1.13090        -8.02555        -0.83961
C          2.46697        -7.40397        -1.10034
C          3.60518        -7.81198        -0.25965
C          4.75963        -7.14577        -0.10709
C          5.86974        -7.23868         1.89724
C          6.70398        -6.16361         1.97959
C         -6.19544        -9.32988        -0.01957
C         -5.13770       -10.05322        -0.45721
C         -3.79561        -9.48127        -0.47336
C         -2.62211       -10.16874        -0.46128
C         -1.37552        -9.38678        -0.47225
C         -0.37572        -9.55255         0.41898
C          0.65794        -8.45380         0.56004
C          1.64140        -8.63963         1.70996
C          2.99116        -8.77828         1.63980
C          3.86239        -8.52750         2.80797
C          5.04187        -7.84955         2.94078
O         -2.00949         0.68822         0.23343
O         -0.09846         2.17612        -2.40103
O          3.40696        -1.51002        -0.09044
O          2.39629        -2.74441        -3.44276
O          1.19774        -0.18557         0.22601
O          3.48259        -5.13491         0.23652
O          3.57099         7.63871        -1.22484
O          5.73781        -7.83627         0.63199
O         -9.96791        -1.17917         0.51371
O          2.05686        -8.70970        -1.70079
O         -5.27358         5.28270         1.00474
H         -4.45180         5.58234         1.46828
O         -2.98074        -3.97106         0.88583
O         -5.99937         0.66233        -2.49849
O          9.70282         5.55692         0.97372
H          9.88567         5.59469         0.01222
O          1.29147         4.73069        -1.63971
O          4.95511        -1.23927        -3.30230
H          5.78602        -1.53600        -3.73453
O         -3.78993        -7.33785        -1.75661
O         -4.93075        -8.15015         1.70601
O         -5.72806        -3.84619         1.74939
O          4.84720         7.07202         2.13038
H          4.10385         6.50943         2.45923
O          0.49523         7.84140         2.01317
O         -2.62716        -2.65674        -2.57827
O         10.09992        -1.34881        -0.99530
O          1.37635        -1.73429        -3.63866
H          1.01438        -1.98084        -4.52549
O          3.53861        -9.07431         0.37483
O         -9.60665         1.51295         0.64109
O          4.85139        -3.73242        -2.80983
O         -7.98098        -4.07807        -0.97256
O          5.62908         0.75274         0.29531
O         -4.29253         3.13593         0.74380
O          0.33498        -5.42077        -2.98507
O          7.43578        -1.15211        -2.45232
O         -8.18200        -5.17584         3.22413
H         -7.28628        -4.89378         3.50499
O          4.35851         3.53223        -1.94420
O         -6.48874         4.62051        -2.33174
O         -4.58048         3.01812        -2.82133
H         -5.06848         2.44441        -3.45270
O         -0.28439         5.28962         1.64789
H         -0.81935         5.99172         2.08590
O         -3.63879         9.58413         1.91857
H         -2.96085         8.95174         2.24739
O         10.14539         1.21965        -0.81710
O         -5.99186        -0.56707         0.92683
H         -5.69318        -1.36829         1.41164
O          5.41648        -3.66331         0.74254
O         -1.83434        -8.76917        -2.69610
O         -3.55844         7.10582         1.37626
O          2.38948         2.45897         0.94184
H          1.95614         1.59052         1.10090
O         -8.66883         5.87502        -1.53721
H         -8.89256         4.95078        -1.80897
O          6.11888         7.72943        -1.23457
H          5.17545         7.81713        -1.56881
O          2.40352         6.06089         1.73627
O          3.12894         1.27644        -2.46822
O          8.94078        -4.11418        -1.83004
H          9.40365        -3.35778        -2.24999
O         -3.82830         5.36288        -2.31564
H         -4.71103         5.19108        -2.72668
O         -0.10820        -7.25024         0.94179
H         -0.48600        -7.39831         1.83558
O         -3.80732        -0.21640        -2.67942
O         -4.73312         7.54363        -2.01296
O         -8.81245         3.21805        -1.50326
O         -0.08195         7.22858        -1.51827
H          0.59119         6.63163        -1.91494
O          7.95812         2.56740        -1.69697
O         -1.00212         7.85743         1.90650
O          2.97448        -6.30880        -3.23455
H          2.26108        -6.86275        -3.63088
O         -8.64123         0.71367        -1.97558
H         -9.40644         1.33415        -1.98577
O          0.37930        -7.83590        -3.08321
H         -0.40607        -8.31285        -3.47816
O         -8.08915        -1.68060        -1.77879
H         -9.04262        -1.90578        -1.79071
O         -3.99736        -5.87347         2.25313
H         -3.88682        -4.93456         2.52393
O          7.50073        -6.52915        -0.30731
H          8.10832        -7.18663         0.08884
O          7.41270        -2.32525         1.02970
H          6.63404        -2.72417         1.49405
H         11.09797        -1.56384         2.18022
H         11.17790         0.86354         2.33034
H         10.28885         3.10111         1.82063
H          8.32872         4.77705         2.28194
H          8.17661         7.54064         1.07926
H          6.97547         9.75798         0.80531
H          4.84710        10.95785         0.98480
H          2.37702        11.02109         0.40617
H          0.00848        10.95552        -0.42691
H         -2.45814        11.04035        -0.36324
H         -5.06513        11.19404         0.27486
H         -7.16836        10.04204        -0.13204
H         -8.35532         7.81131         0.17037
H         -9.07998         5.80588         1.28685
H         -6.96910         2.82179         2.56078
H         -8.94420         1.44979         3.80321
H         -9.59397        -0.89978         3.83341
H         -9.38753        -3.09641         3.02818
H         -9.18736        -5.60054         1.47570
H         -8.09865        -7.70267         1.30787
H         -7.21358        -9.74353        -0.05755
H         -5.28006       -11.07224        -0.84572
H         -2.59461       -11.26653        -0.39139
H         -0.40924       -10.37236         1.15308
H          1.19994        -8.43298         2.69911
H          3.37385        -8.79112         3.76260
H          5.37534        -7.66256         3.97521
H          6.84080        -5.62067         2.92517
H          9.36242        -5.46207         0.60932
H         10.62461        -3.68814         0.44958
