         276
 CSIRO Nanostructure Databank - Neutral Graphene Oxide Data Set
C        -11.10779         0.56182         0.63431
C         -9.89386         1.38940         0.53209
C         -8.58587         0.73432         0.61135
C         -7.44016         1.33789        -0.16580
C         -6.09298         0.78186         0.33281
C         -4.88178         1.51099        -0.12336
C         -3.55013         0.83326        -0.08795
C         -2.41920         1.50352        -0.77057
C         -1.18170         0.75441        -1.01814
C         -0.00239         1.38309        -0.84604
C          1.21882         0.49819        -0.77252
C          2.47705         1.34633        -0.66469
C          3.84236         0.74015        -0.94201
C          5.06147         1.35829        -0.37330
C          6.37047         0.82871        -0.78923
C          7.59785         1.55080        -0.22433
C          8.89180         0.80545        -0.02939
C          9.88083         1.35021         1.03271
C         11.22074         0.67508         0.85958
C         -9.98774         2.67751         0.05033
C         -8.82083         3.46335        -0.53230
C         -7.46840         2.88290        -0.05774
C         -6.33113         3.49466        -0.88395
C         -5.01079         2.78928        -0.91434
C         -3.79325         3.59508        -1.12975
C         -2.49825         2.93801        -1.18632
C         -1.25329         3.63660        -0.66512
C         -0.09097         2.76066        -0.25674
C          1.13280         3.42213         0.28456
C          2.40693         2.79559        -0.24877
C          3.70645         3.54158        -0.08779
C          5.01218         2.80929        -0.05402
C          6.16741         3.51751         0.60925
C          7.42486         2.67171         0.81373
C          8.70527         3.52373         0.80015
C          9.88425         2.85849         0.92640
C         -8.75540         4.95143        -0.23325
C         -7.59293         5.69211        -0.52133
C         -6.44323         4.98948        -1.22825
C         -5.12571         5.73417        -1.08370
C         -3.92648         4.97729        -0.56382
C         -2.62742         5.74033        -0.41468
C         -1.49580         4.90594         0.15147
C         -0.19649         5.68232         0.40738
C          1.08087         4.90919         0.59182
C          2.38723         5.62774         0.76607
C          3.67662         4.91832         0.51204
C          4.91348         5.76740         0.25920
C          6.19597         5.02583         0.64109
C          7.52221         5.70976         0.45844
C          8.66202         4.95490         0.54144
C         -7.47499         7.06991        -0.30546
C         -6.23436         7.91049        -0.57392
C         -5.07648         7.08312        -1.12697
C         -3.72054         7.70893        -1.32680
C         -2.56744         7.10145        -0.56046
C         -1.38248         7.89388        -0.21852
C         -0.11421         7.13363         0.01749
C          1.15693         7.84312         0.34464
C          2.28497         7.12908         1.06674
C          3.62310         7.82093         0.92975
C          4.74294         7.06466         1.01484
C          6.63607         8.02109         0.40278
C          7.54287         7.10051        -0.04036
C         -5.57211         8.30207         0.76590
C         -4.44320         9.02463         0.93927
C         -3.82146         9.99248         0.00915
C         -2.48005        10.17169        -0.29580
C         -1.34411         9.28330        -0.19272
C          0.01034        10.00127        -0.27157
C          1.10275         9.34204         0.60235
C          2.46177         9.99059         0.51290
C          3.74456         9.33553         0.99182
C          4.94150         9.85043         0.16713
C          6.15242         9.29709        -0.11832
C        -11.23075        -0.80009         0.73509
C        -10.16919        -1.71917         1.13249
C         -8.37520        -0.50990         1.11622
C         -7.27823        -1.40599         0.59918
C         -5.95423        -0.66911         0.86319
C         -4.72555        -1.40970         0.37254
C         -3.43887        -0.61136         0.40548
C         -2.21447        -1.37648        -0.16404
C         -1.27578        -0.72475        -1.21545
C          0.14632        -1.34243        -1.09685
C          1.30215        -0.64369        -1.78708
C          2.61000        -1.38860        -1.85851
C          3.90402        -0.61079        -1.62189
C          5.22228        -1.40263        -1.77502
C          6.49509        -0.61183        -1.27226
C          7.76197        -1.37231        -0.91704
C          8.96497        -0.66346        -0.32355
C         10.02339        -1.41328         0.40594
C         11.25138        -0.65989         0.68459
C         -9.87069        -3.00633         0.76497
C         -8.57475        -3.64924         1.03882
C         -7.30479        -2.83474         1.11943
C         -5.98070        -3.54848         0.98603
C         -4.59716        -2.84796         0.87354
C         -3.50601        -3.61651         0.11853
C         -2.23699        -2.87771        -0.16898
C         -1.05755        -3.67940        -0.73672
C          0.05415        -2.83332        -1.47898
C          1.35124        -3.61479        -1.37198
C          2.63992        -2.88105        -1.55547
C          3.93938        -3.66866        -1.78593
C          5.09985        -2.82180        -1.21217
C          6.29897        -3.51826        -0.66829
C          7.65683        -2.85793        -0.65591
C          8.65573        -3.47055         0.32525
C          9.83769        -2.70276         0.77313
C         -8.47984        -5.00474         1.25777
C         -7.21924        -5.74215         1.23581
C         -6.07137        -4.99686         0.64188
C         -4.87198        -5.69669         0.12181
C         -3.61488        -4.93614        -0.16976
C         -2.68299        -5.72274        -1.08900
C         -1.38864        -4.93267        -1.56108
C         -0.09978        -5.76062        -1.59900
C          1.24515        -5.09462        -1.69256
C          2.58689        -5.83918        -1.43013
C          3.84829        -5.06758        -1.13897
C          4.92033        -5.66429        -0.53560
C          6.30451        -5.04029        -0.49178
C          7.06334        -5.35682         0.79275
C          8.15836        -4.55731         1.15249
C         -7.09698        -7.08254         1.46540
C         -5.98117        -7.90600         0.83096
C         -4.66930        -7.11905         0.59804
C         -3.69159        -7.94755        -0.25986
C         -2.44720        -7.16403        -0.64464
C         -1.35481        -7.85601        -1.09851
C         -0.27613        -7.12281        -1.73685
C          1.55525        -8.13261        -1.22789
C          2.47820        -7.19535        -0.86973
C          3.53533        -7.73718         0.01288
C          4.84507        -7.05081         0.03417
C          5.91494        -7.55638         1.00538
C          6.71349        -6.43766         1.59362
C         -5.58885        -9.17037         1.56806
C         -4.36513        -9.72641         1.42045
C         -3.34965        -9.20893         0.50172
C         -2.17318        -9.82355         0.23752
C         -1.32612        -9.39167        -0.94746
C          0.08019       -10.11844        -0.98157
C          1.25730        -9.33171        -0.45678
C          2.01905        -9.64335         0.62445
C          3.05389        -8.64738         1.12181
C          4.20154        -9.18732         1.93883
C          5.40091        -8.58897         1.98973
O         -5.95649        -5.36082        -0.79905
O          3.99025         0.58120        -2.42994
O          7.08857        -5.67890        -1.57846
O          0.72952        -7.89581        -2.33624
O          2.14073        -3.22053        -0.21139
O          7.17514         1.82424        -1.56526
O          1.88762        -0.88840        -3.05791
O          2.23518         2.42684        -1.64503
O         -1.61966        -2.09782         0.93929
O         -5.39599         1.68846         1.24361
O         -3.46925        -6.00761        -2.23830
O          0.74223        -0.66993         0.16887
O          2.08878        -5.57325        -2.77313
O          0.94033         7.38603        -1.02055
O          5.31510        -2.88218         0.22397
O          5.90491         4.25341         1.83874
O          9.52426         0.34082        -1.23476
O          3.14627         4.96962         1.85912
O         -1.49721         3.54840        -2.08580
O         -6.55071        -3.21418         2.29942
O          5.89200         7.63375         1.53441
O          4.61060        -8.17444        -0.91053
O         -5.93601         2.72263        -2.06692
O          4.53973         3.54367        -1.28489
O          7.53078        -0.87593        -2.25678
O         -9.25616        -1.09475         2.01993
O         -3.55235         8.54658        -2.19733
O          8.69109        -3.70941        -1.15542
O          0.26348         2.66917         1.17482
O          7.20308         2.04067         2.05442
O         -2.61364         1.62421         0.71146
O          0.27109         5.32528         1.74191
O         -2.01141        -9.89831        -2.12427
H         -2.92360        -9.50094        -2.11700
O          6.90620        -8.28075         0.20898
H          6.39692        -8.72783        -0.50895
O          3.89220         9.81336         2.35954
H          3.23948         9.33132         2.91179
O          0.42843        10.02723        -1.63629
H          0.55142         9.09308        -1.92717
O         -1.65417        -4.59490        -2.93377
H         -2.44643        -5.15222        -3.20031
O         -6.57240         9.05857        -1.34151
H         -6.82937         8.76679        -2.23967
O         -4.00372        -6.96193         1.88028
H         -4.61953        -6.51739         2.50035
O         -4.09344        -2.80122         2.24226
H         -4.85897        -2.50087         2.79511
O          9.46173         0.93020         2.34670
H          8.59015         1.38984         2.55501
O         -4.27539        -8.34234        -1.51958
H         -4.24132        -7.52001        -2.09179
O          0.67504         9.54669         1.98256
H          1.10184         8.84808         2.53845
O         -7.58814         0.96298        -1.55746
H         -8.20472         1.61714        -1.98262
O         -5.84450        -0.59062         2.30151
H         -4.98681        -0.12886         2.48811
O         -3.20960        -0.42829         1.82957
H         -2.87681        -1.30094         2.16796
O         -6.57056        -8.27951        -0.43663
H         -6.61849        -7.46345        -0.98455
O          5.37810        -1.56907        -3.18454
H          5.32343        -0.68195        -3.60229
O          4.93488         6.15459        -1.13207
H          4.93072         5.32510        -1.67155
O         -4.42529         4.72867         0.81048
H         -3.65356         4.40475         1.34970
O          1.97762         7.24924         2.49220
H          2.40469         6.48277         2.94364
O         -7.37873         3.31953         1.30242
H         -6.53997         2.96721         1.68979
O         -1.94123        -0.91851        -2.47799
H         -1.40546        -1.54878        -3.02952
O         -0.13432        -2.67333        -2.90569
H         -0.36700        -3.54533        -3.31640
O          4.12746        -3.82959        -3.18788
H          4.99065        -4.28146        -3.33882
O         -7.45960        -1.60775        -0.81886
H         -7.58609        -0.74128        -1.28648
O         -8.92455         3.29947        -1.98285
H         -8.31207         3.95504        -2.41102
O         -6.80514         5.04654        -2.64270
H         -6.24421         4.37446        -3.09968
O         -4.69637        10.92016        -0.42629
H         -4.26615        11.51816        -1.06968
O          6.32797        -5.53374        -2.80766
H          6.04921        -6.46237        -3.00307
O         -0.40688        -4.24155         0.42540
H         -0.27435        -3.51498         1.07713
O         -1.93996         4.39759         1.43638
H         -1.22382         3.81854         1.80046
O         -0.00148       -11.35985        -0.29181
H         -0.62187       -11.93305        -0.78655
O          2.32567        -7.74527         2.02104
H          1.88347        -8.28990         2.70566
H         12.20054        -1.21589         0.70877
H         12.14321         1.24341         1.04934
H         10.84075         3.40477         0.93619
H          9.63328         5.44685         0.37280
H          8.26087         7.35531        -0.83467
H          6.80641         9.84197        -0.81907
H          4.74326        10.82360        -0.31418
H          2.46752        11.09484         0.50279
H         -0.11187        11.06175         0.06059
H         -2.24984        11.12975        -0.79303
H         -3.97427         8.98863         1.93870
H         -5.90528         7.70031         1.62740
H         -8.34058         7.61002         0.11179
H         -9.60885         5.45710         0.24630
H        -10.99041         3.10399        -0.11638
H        -12.03513         1.10760         0.38981
H        -12.22383        -1.23181         0.52772
H        -10.60763        -3.58622         0.18774
H         -9.40351        -5.59905         1.33794
H         -7.97958        -7.64725         1.80821
H         -6.32923        -9.64441         2.23097
H         -4.11910       -10.65075         1.96766
H         -1.90028       -10.75647         0.75607
H          0.28781       -10.31934        -2.06997
H          1.77488       -10.52034         1.24252
H          3.97652       -10.00616         2.64158
H          6.16348        -8.98415         2.68007
H          7.26769        -6.60933         2.53016
H          8.67128        -4.75821         2.10542
H         10.60395        -3.23677         1.35353
