         429
 CSIRO Nanostructure Databank - Neutral Graphene Oxide Data Set
C          1.23651         4.15002        -0.61548
C          0.04217         4.70785        -0.17079
C          1.27269         6.49254         0.96746
C          0.05800         5.87748         0.58669
C          1.26253         7.83418         1.55609
C          0.08954         8.57288         1.67769
C          1.22699        10.72829         1.40193
C          0.07544         9.98555         1.63696
C          1.21681        12.11598         0.98329
C         -0.00524        12.79387         0.81780
C          1.16014        14.82788         0.20352
C         -0.02848        14.12595         0.42857
C          1.05397        16.25050        -0.27336
C          0.02597        17.05659         0.48545
C          1.15076        19.11315        -0.17746
C          0.05522        18.40827         0.45192
C          1.10892        20.53210        -0.39798
C         -0.03723        21.28577        -0.12387
C          1.00658        23.39608        -0.78352
C         -0.06151        22.69671        -0.27977
C          0.95302        24.85274        -1.04673
C         -0.19217        25.64973        -0.58732
C          1.13432        27.72429        -0.62521
C         -0.10621        26.99297        -0.45656
C          1.18953        29.11972        -0.28760
C          0.01777        29.86454         0.02489
C          1.34213        31.82262         0.61396
C          0.08773        31.17365         0.44116
C          1.42580        33.18855         1.13217
C          0.28820        33.86901         1.60985
C          1.56949        35.90506         1.98960
C          0.35765        35.18889         2.04538
C          1.65260        37.28159         2.39425
C          3.68900         4.10945        -0.70863
C          2.47220         4.71397        -0.23028
C          3.79784         6.36020         1.12083
C          2.49410         5.85716         0.61764
C          3.82591         7.80436         1.67810
C          2.52408         8.53626         1.79353
C          3.74858        10.75299         1.15995
C          2.51935        10.08201         1.62459
C          3.70517        12.10231         0.75771
C          2.43994        12.80168         0.71044
C          3.63980        14.87192         0.00448
C          2.40830        14.17072         0.31461
C          3.60716        16.25512        -0.34800
C          2.37038        16.97577        -0.34714
C          3.51468        19.09164        -0.96964
C          2.31972        18.37215        -0.49882
C          3.51379        20.56622        -0.93032
C          2.30866        21.22680        -0.82447
C          3.51926        23.42872        -1.06930
C          2.22606        22.66010        -1.28230
C          3.52112        24.79651        -1.14577
C          2.26479        25.58820        -1.26797
C          3.55084        27.75253        -1.07173
C          2.31234        27.04400        -0.98115
C          3.62759        29.09163        -0.68073
C          2.45178        29.78219        -0.23431
C          3.81676        31.76308         0.48683
C          2.50682        31.12458         0.25962
C          3.88045        33.20814         0.73945
C          2.67743        33.87476         1.12488
C          3.97442        35.95406         1.41606
C          2.73991        35.24484         1.51570
C          4.01960        37.34083         1.79024
C          2.82853        37.96906         2.29973
C          6.13946         3.88337        -0.74047
C          4.93643         4.56257        -0.32741
C          6.24885         5.89983         1.18006
C          5.02755         5.67023         0.62420
C          6.29291         8.04017         1.60856
C          5.03787         8.65352         1.54888
C          6.17181        10.68899         0.71945
C          4.97434        10.02606         1.13645
C          6.14977        12.08363         0.34266
C          4.91651        12.78770         0.38823
C          6.10416        14.86813        -0.27494
C          4.88540        14.18273         0.04874
C          6.05769        16.24992        -0.61103
C          4.83834        16.92456        -0.63951
C          6.07074        19.12814        -0.95867
C          4.81667        18.34337        -1.06261
C          6.01667        20.55139        -0.92187
C          4.77452        21.27777        -0.99944
C          5.99664        23.40291        -0.79439
C          4.77074        22.68722        -0.98451
C          6.04502        24.83568        -0.98871
C          4.79151        25.52197        -1.38774
C          6.09572        27.78452        -1.65842
C          4.77297        27.02013        -1.52440
C          6.17346        29.00034        -0.72961
C          4.91047        29.87493        -0.90986
C          6.25909        31.89175        -0.27872
C          5.05013        31.08684        -0.01758
C          6.27282        33.25165         0.05356
C          5.09282        33.90508         0.58655
C          6.33071        36.06565         0.72827
C          5.13442        35.30869         0.91337
C          6.35763        37.45145         1.08184
C          5.20430        38.06119         1.63173
C          8.62124         3.61093        -0.64514
C          7.39561         4.22102        -0.26557
C          8.66402         6.23991         0.50427
C          7.53721         5.25518         0.81848
C          8.52402         7.73803         0.26543
C          7.42806         8.56845         0.95739
C          8.56724        10.53303         0.01966
C          7.35479         9.91647         0.58323
C          8.57907        11.98235        -0.29805
C          7.34217        12.76754        -0.07834
C          8.58913        14.85432        -0.68569
C          7.34524        14.14470        -0.34579
C          8.57444        16.20909        -0.90205
C          7.27232        16.94043        -1.19682
C          8.50664        19.18320        -0.87630
C          7.29475        18.44494        -0.93002
C          8.48800        20.58236        -0.70500
C          7.23516        21.27154        -0.73199
C          8.36866        23.39281        -0.06725
C          7.19195        22.68669        -0.58719
C          8.34315        24.94261        -0.10264
C          7.21409        25.55487        -0.82667
C          8.65103        27.61766        -1.45009
C          7.34012        26.90577        -1.45127
C          8.67141        29.13850        -1.39693
C          7.44464        29.81661        -0.98930
C          8.60655        32.02025        -1.21868
C          7.40210        31.19845        -0.81482
C          8.60534        33.42934        -0.68209
C          7.48012        34.04182        -0.17999
C          8.62591        36.25802        -0.08758
C          7.49242        35.46307         0.15843
C          8.64756        37.63860         0.25328
C          7.53409        38.21492         0.84062
C         11.07557         3.61235        -0.63186
C          9.84088         4.22075        -0.30187
C         11.09704         6.36002         0.12191
C          9.84072         5.62422         0.13815
C         11.10079         7.74359         0.35608
C          9.84903         8.47427         0.36449
C         11.06051        10.67008         0.58555
C          9.84477         9.83638         0.28107
C         11.06153        12.04786        -0.06049
C          9.88980        12.67961        -0.36747
C         11.15530        14.76105        -1.04805
C          9.82015        14.01072        -1.07901
C         11.14129        16.27616        -1.15371
C          9.81089        16.97632        -1.22860
C         11.10308        19.27292        -1.13259
C          9.78355        18.48327        -1.17837
C         10.98479        20.65919        -0.49641
C          9.72056        21.33727        -0.46318
C         10.86322        23.38598         0.37863
C          9.64928        22.66854        -0.02835
C         10.87631        24.94166         0.37843
C          9.59301        25.78843         0.19655
C         11.05281        27.20181        -1.18682
C          9.79306        26.86882        -0.82850
C         11.14462        29.31573        -1.74970
C          9.85587        29.88573        -1.48763
C         11.14553        32.08588        -1.09317
C          9.88438        31.27448        -0.84904
C         11.13169        33.46240        -1.00361
C          9.83638        34.18982        -0.96284
C         11.12591        36.35736        -0.52506
C          9.83274        35.66666        -0.69866
C         11.12860        37.74628        -0.26644
C          9.82077        38.50117        -0.15913
C         13.52649         3.68389        -0.88888
C         12.29842         4.28491        -0.49619
C         13.56429         6.33690         0.05880
C         12.32584         5.66720        -0.08698
C         13.56624         7.75134         0.29408
C         12.33405         8.47173         0.37003
C         13.54295        10.60261         0.33287
C         12.33533         9.89373         0.37855
C         13.54239        12.04913         0.14630
C         12.35128        12.73133        -0.14445
C         13.55878        14.87402        -0.41722
C         12.37842        14.12404        -0.51246
C         13.52391        16.32989        -0.50221
C         12.33776        17.01124        -0.72560
C         13.55562        19.23328        -0.51695
C         12.21700        18.47890        -0.37134
C         13.39800        20.56203         0.17469
C         12.15207        21.32474        -0.07535
C         13.37117        23.41159         0.53657
C         12.15403        22.69509         0.28851
C         13.39320        24.85068         0.41103
C         12.19474        25.54503         0.11745
C         13.45433        27.59612        -0.49030
C         12.27644        26.80134        -0.52327
C         13.42659        29.09707        -0.67396
C         12.33429        29.88145        -1.32318
C         13.74634        32.08228        -1.37790
C         12.37416        31.37865        -1.59998
C         13.60873        33.52318        -0.90213
C         12.36281        34.21144        -0.89819
C         13.57091        36.33986        -0.50276
C         12.34298        35.63312        -0.65264
C         13.57635        37.76479        -0.35301
C         12.33313        38.44440        -0.22901
C         15.91570         3.66974        -1.34478
C         14.76115         4.29210        -0.68808
C         16.00503         6.29356         0.28262
C         14.81093         5.61281        -0.06435
C         16.04627         7.74112         0.43525
C         14.78921         8.47332         0.40230
C         16.00538        10.62828         0.63984
C         14.76327         9.87763         0.45047
C         15.99697        12.07318         0.37118
C         14.80358        12.75953         0.15702
C         15.99620        14.90201        -0.02975
C         14.80024        14.20090        -0.06333
C         16.02599        16.34898        -0.28424
C         14.75049        17.08369        -0.22831
C         15.98287        19.18752         0.26217
C         14.76575        18.44878        -0.06321
C         15.93413        20.57020         0.57075
C         14.63152        21.26455         0.64918
C         15.83135        23.43703         0.77333
C         14.60854        22.73261         0.67525
C         15.84052        24.86389         0.64544
C         14.61818        25.57581         0.36830
C         15.83959        27.74027         0.24868
C         14.62288        26.98584         0.05955
C         15.92072        29.11727         0.02031
C         14.68869        29.87655        -0.29949
C         16.01024        31.97201        -0.40682
C         14.81126        31.31968        -0.61530
C         16.10217        33.46103        -0.69076
C         14.78809        34.19503        -0.58758
C         16.01188        36.33172        -0.26647
C         14.80556        35.62272        -0.43850
C         16.03479        37.76072        -0.27876
C         14.80532        38.46062        -0.31654
C         18.48041         3.53596        -1.43077
C         17.17799         3.75874        -0.83613
C         18.48764         6.24393         0.15021
C         17.26186         5.61616         0.33270
C         18.56780         7.64831         0.68532
C         17.26075         8.40196         0.52747
C         18.56705        10.56130         0.18663
C         17.31347         9.86739         0.68804
C         18.57159        12.06215         0.41682
C         17.27411        12.77236         0.57200
C         18.54025        14.98489         0.21058
C         17.25716        14.26771         0.35735
C         18.54751        16.35539         0.27820
C         17.31199        17.10454        -0.04620
C         18.40668        19.19349         0.73679
C         17.23229        18.52455         0.31725
C         18.32514        20.56616         1.08062
C         17.10206        21.27745         0.93997
C         18.24248        23.46483         1.25297
C         17.06251        22.73399         1.04077
C         18.27263        24.88578         1.07087
C         17.05871        25.56412         0.78773
C         18.37214        27.75913         0.76632
C         17.02190        27.03161         0.77702
C         18.40136        29.14388         0.28465
C         17.17937        29.82627         0.06016
C         18.48015        31.90999        -0.12296
C         17.22496        31.24039        -0.15161
C         18.50078        33.38275         0.08208
C         17.22037        34.12697         0.09756
C         18.54684        36.30535        -0.08796
C         17.23492        35.64450         0.27084
C         18.52789        37.73027        -0.19060
C         17.28807        38.43085        -0.21777
C         19.57181         4.29755        -1.11752
C         20.79979         6.32895        -0.56664
C         19.63177         5.57822        -0.41470
C         20.87275         7.71495        -0.22240
C         19.81143         8.40649         0.29484
C         21.06300        10.64679         0.26616
C         19.85117         9.86636         0.72496
C         20.99040        11.98055         0.08974
C         19.75090        12.73346         0.28432
C         20.93229        14.94450         0.84970
C         19.84207        14.23508         0.08617
C         20.90209        16.28742         1.01097
C         19.74181        17.08864         0.64278
C         20.84894        19.22554         1.22182
C         19.67342        18.47135         0.84478
C         20.78683        20.52565         1.59380
C         19.50427        21.24282         1.64107
C         20.72201        23.53789         1.71352
C         19.46472        22.77980         1.72082
C         20.74381        24.84458         1.36406
C         19.53589        25.58609         1.07491
C         20.82436        27.65334         0.51403
C         19.60490        26.95978         0.77196
C         20.85166        29.01057         0.29243
C         19.65635        29.79622         0.19509
C         20.89795        31.98107         0.39007
C         19.68885        31.22366         0.07475
C         20.95261        33.33232         0.35729
C         19.79821        34.09166        -0.24742
C         20.96693        36.32949        -0.19949
C         19.76474        35.60422        -0.08376
C         20.96057        37.72894        -0.27009
C         19.76106        38.42800        -0.27967
O          3.84117         6.64935         2.55857
O          9.65651        35.15420        -2.07463
O         19.25711        21.94518         2.90745
O          1.41907        25.21106        -2.41284
O          4.02669        18.59244        -2.26960
O         17.25070         4.22894         0.49078
O         17.73934        33.55456         1.34392
O         13.71632        20.55738         1.60549
O          6.40056         6.79576         2.25029
O         11.20878        28.02973        -2.29037
O         13.60537        29.68194         0.69568
O          2.57779         9.43324         2.93853
O         14.42707        32.07615        -2.63915
O         17.22047        13.67990         1.73079
O         10.78794        24.19463         1.61649
O          4.69849        30.92547         1.38508
O         11.40128        15.43386        -2.33289
O          9.66587        17.76252        -2.47389
O         17.57565        27.61863         1.99743
O         16.86119        16.79316        -1.42475
O         16.72785        10.34722         1.92290
O          8.17807        26.92725        -2.66436
O          4.66432        26.17348        -2.72018
O          7.98211        24.20574         1.10161
O          8.42283        10.97012        -1.38915
O          6.18530        28.48018         0.61294
H          6.03763        29.22261         1.24071
O         13.86909        19.54495        -1.89062
H         13.91405        18.70986        -2.40137
O          9.84360        31.06931         0.59219
H         10.63029        30.54739         0.85928
O         18.53656        10.37392        -1.25571
H         19.32134        10.82722        -1.63274
O         20.22187        14.34824        -1.34002
H         20.23926        15.30410        -1.56249
O         18.68207         7.46723         2.17311
H         19.43942         6.86170         2.32839
O         19.85429         9.91265         2.16637
H         19.24148         9.20798         2.49511
O          9.35231        26.43034         1.46657
H          9.20435        25.70646         2.11705
O          2.07645        22.57193        -2.74131
H          1.90350        23.49383        -3.05831
O          6.13668        28.28453        -3.00842
H          6.00430        27.51170        -3.60308
O          8.11112         7.77219        -1.14508
H          8.22553         8.69077        -1.47805
O         10.98436        10.94674         2.03380
H         11.19535        10.11502         2.50923
O         12.11366        31.47098        -3.03192
H         12.99562        31.74787        -3.42766
O          0.55443        16.16188        -1.65866
H          0.63428        17.05585        -2.05578
O          4.84882        30.42833        -2.24266
H          5.15961        29.73236        -2.87759
O         11.81077        18.49735         1.02500
H         12.52376        18.89216         1.57613
O         16.49526        33.61455        -2.08212
H         15.80632        33.08340        -2.59253
O          9.52279        39.08354        -1.44581
H          9.41714        38.35260        -2.09018
O         11.48823        19.51015        -2.49635
H         11.01305        18.85296        -3.05816
O          9.54646        13.66643        -2.46111
H          9.95291        14.37229        -3.01683
O          7.96981         4.53514         2.02174
H          7.77481         5.11974         2.78657
O          8.59616        32.13475        -2.66384
H          7.84941        32.71161        -2.92644
O         19.90235        33.89446        -1.69787
H         20.70647        34.36079        -2.00842
O         17.09081        35.92143         1.70993
H         17.47724        35.13912         2.17625
O          7.10554        16.81049        -2.64273
H          7.90834        17.20731        -3.05700
H          1.22973         3.25719        -1.25644
H         -0.91761         4.25093        -0.44851
H         -0.90059         6.32532         0.87850
H         -0.88571         8.06873         1.63792
H         -0.90941        10.47116         1.61194
H         -0.95649        12.27457         0.98938
H         -0.99570        14.62345         0.27777
H         -0.81263        16.54112         0.97481
H         -0.74606        18.98103         0.93964
H         -0.95143        20.79553         0.23432
H         -0.98517        23.22184         0.00310
H         -1.13552        25.14210        -0.34285
H         -0.99942        27.53729        -0.12430
H         -0.97289        29.40286        -0.07385
H         -0.84551        31.70967         0.65764
H         -0.68219        33.35660         1.65180
H         -0.54778        35.68831         2.41904
H          0.74635        37.77533         2.77428
H          3.60724         3.23633        -1.37274
H          2.88190        39.02562         2.60033
H          6.03712         3.05149        -1.45469
H          5.23755        39.12625         1.90483
H          8.62192         2.70039        -1.26321
H          7.53660        39.28651         1.08897
H         11.07466         2.57947        -1.01203
H          9.93489        39.35508         0.55545
H         13.49286         2.69535        -1.37081
H         12.32735        39.53530        -0.08857
H         15.73735         3.16949        -2.30844
H         14.80369        39.55859        -0.25349
H         18.59520         2.73137        -2.17363
H         17.30280        39.53070        -0.24655
H         20.51948         4.01683        -1.60690
H         21.67363         5.86995        -1.05120
H         21.81686         8.23534        -0.44112
H         22.03515        10.13883         0.18408
H         21.88966        12.54812        -0.19148
H         21.80998        14.37093         1.18210
H         21.74747        16.78096         1.51125
H         21.82482        18.72126         1.21972
H         21.69829        21.04176         1.92410
H         21.64778        23.03862         2.02865
H         21.70221        25.38019         1.38234
H         21.77486        27.10298         0.51215
H         21.82336        29.49840         0.13549
H         21.77039        31.42318         0.76064
H         21.86705        33.85751         0.67106
H         21.92712        35.79389        -0.22948
H         21.91379        38.27138        -0.33916
H         19.75735        39.52471        -0.35544
