         404
 CSIRO Nanostructure Databank - Neutral Graphene Oxide Data Set
C          1.65399         2.17218         2.59620
C          1.58288         3.55563         2.38354
C          2.82727         1.47912         2.34555
C          2.69551         4.28165         1.91174
C          1.46342         6.44775         1.95130
C          1.43327         7.83060         1.82660
C          2.64593         5.72463         1.71245
C          2.58172         8.55161         1.46344
C          1.29171        10.77856         1.38665
C          1.28160        12.12016         1.17155
C          2.55146        10.03417         1.47413
C          2.46231        12.85442         0.77036
C          1.31676        15.05383         1.15307
C          1.32020        16.42743         1.23043
C          2.42125        14.30826         0.60241
C          2.40299        17.18774         0.71516
C          2.50088        18.58156         0.86733
C          3.97405         2.16671         1.86072
C          3.90424         3.58459         1.64282
C          5.16746         1.47009         1.58968
C          5.05930         4.28674         1.16060
C          3.81120         6.43248         1.28559
C          3.78213         7.85890         1.16300
C          5.01511         5.70850         0.99301
C          4.96073         8.56909         0.69191
C          3.80112        10.77394         0.97892
C          3.63125        12.15264         0.50548
C          4.95388         9.97546         0.51586
C          4.73363        12.76579        -0.24455
C          3.49872        14.99721         0.04924
C          3.45608        16.46738        -0.01287
C          4.67386        14.28704        -0.49975
C          4.73448        17.23824        -0.35994
C          3.68749        19.26924         0.60743
C          4.85995        18.60976         0.16679
C          6.30429         2.13319         1.05491
C          6.24383         3.57079         0.85887
C          7.44038         1.41391         0.69590
C          7.40765         4.26407         0.40879
C          6.17462         6.40543         0.54212
C          6.13549         7.82565         0.36211
C          7.37738         5.68503         0.27434
C          7.29649         8.50629        -0.12650
C          6.09344        10.66059         0.00185
C          6.05015        12.09972        -0.25254
C          7.25813         9.92310        -0.28790
C          7.17214        12.83076        -0.60640
C          5.96757        14.98844        -0.67082
C          5.98114        16.46929        -0.69300
C          7.15574        14.27661        -0.78121
C          7.30461        17.17239        -0.51477
C          6.12522        19.20917         0.32600
C          7.33808        18.53527         0.06898
C          8.59908         2.04053        -0.01016
C          8.59783         3.55108         0.09549
C          9.90454         1.46898         0.48430
C          9.77571         4.25013        -0.21934
C          8.55242         6.38025        -0.15517
C          8.49457         7.77472        -0.37807
C          9.78000         5.65840        -0.34739
C          9.66956         8.43079        -0.98965
C          8.49553        10.65207        -0.61026
C          8.47843        12.14319        -0.69385
C          9.63724         9.92371        -1.22983
C          9.58271        12.83492        -1.46893
C          8.45760        14.96820        -0.79177
C          8.52546        16.35223        -0.46710
C          9.66358        14.26507        -0.99003
C          9.75279        16.98049        -0.20194
C          8.58135        19.09312         0.38397
C          9.79734        18.37195         0.22196
C         11.08568         2.13557         0.25518
C         11.03393         3.48233        -0.36831
C         12.36683         1.59551         0.58706
C         12.32563         4.25070        -0.49677
C         11.02413         6.37767        -0.55410
C         10.98692         7.78905        -0.85456
C         12.25011         5.71615        -0.50828
C         12.14515         8.52846        -1.08650
C         10.90860        10.65529        -1.41999
C         10.90569        12.09056        -1.43519
C         12.09683         9.91761        -1.44334
C         12.10238        12.80662        -1.47597
C         10.91851        14.89176        -0.79094
C         10.96319        16.24661        -0.34380
C         12.14922        14.19117        -1.04946
C         12.21347        16.86230        -0.04829
C         11.03477        18.96185         0.50847
C         12.25572        18.24627         0.38959
C         13.56277         2.30218         0.43295
C         13.58909         3.63130        -0.04679
C         14.83246         1.63377         0.90859
C         14.80502         4.37879        -0.15490
C         13.50512         6.46360        -0.44507
C         13.46895         7.93933        -0.78745
C         14.79327         5.74932        -0.50297
C         14.71750         8.58128        -1.27742
C         13.34818        10.58572        -1.81928
C         13.33814        12.10889        -1.87674
C         14.64814         9.89214        -1.68246
C         14.65019        12.83151        -1.82956
C         13.37705        14.82222        -0.76572
C         13.39923        16.12172        -0.20081
C         14.66013        14.21087        -1.20627
C         14.66492        16.70159         0.28836
C         13.49286        18.86664         0.62970
C         14.71907        18.15612         0.54620
C         16.10245         2.38322         0.57527
C         16.06300         3.72418         0.09256
C         17.31517         1.75943         0.82655
C         17.27381         4.44065        -0.11329
C         15.99515         6.47856        -0.76362
C         15.97583         7.84320        -1.22952
C         17.24661         5.81088        -0.61223
C         17.17638         8.45342        -1.67935
C         15.85219        10.61259        -2.16485
C         15.92198        12.08130        -1.90244
C         17.13554         9.82414        -2.26690
C         17.11449        12.74178        -1.66622
C         15.95313        14.71743        -0.74147
C         15.97455        15.96566         0.03027
C         17.14614        14.08766        -1.10780
C         17.21957        16.73235         0.03790
C         15.95623        18.77081         0.70714
C         17.19705        18.09840         0.44759
C         18.54551         2.45578         0.66618
C         18.48927         3.80149         0.22035
C         19.80086         1.80376         0.88454
C         19.72845         4.58511         0.16699
C         18.44277         6.47977        -0.98316
C         18.41927         7.76943        -1.56849
C         19.71764         5.74680        -0.77569
C         19.68146         8.38487        -2.10100
C         18.40889        10.62768        -2.41171
C         18.40871        12.10648        -2.04080
C         19.69054         9.82281        -2.67107
C         19.67667        12.78751        -1.69381
C         18.41098        14.73756        -0.84649
C         18.42004        16.08983        -0.36230
C         19.65708        14.07988        -1.14162
C         19.64916        16.80982        -0.25095
C         18.40970        18.81245         0.48760
C         19.63326        18.18702         0.15917
C         21.03578         2.44496         0.70019
C         21.04012         3.89893         0.43676
C         22.26764         1.75827         0.69765
C         22.29874         4.55623         0.01871
C         21.03177         6.39075        -1.08332
C         21.01029         7.74154        -1.75891
C         22.26072         5.84453        -0.46173
C         22.22905         8.59398        -1.69807
C         20.97584        10.64034        -2.38278
C         20.96204        12.12865        -2.01110
C         22.22075         9.91658        -2.02461
C         22.22079        12.77333        -1.52830
C         20.90351        14.78874        -0.91384
C         20.88748        16.15517        -0.51284
C         22.15746        14.13053        -1.09532
C         22.11376        16.87927        -0.35612
C         20.84463        18.91294         0.21609
C         22.08180        18.28802        -0.03484
C         23.50783         2.39243         0.39640
C         23.54458         3.81421         0.11024
C         24.71141         1.66011         0.35106
C         24.74263         4.42607        -0.24705
C         23.49261         6.65125        -0.50777
C         23.47972         7.98725        -1.16762
C         24.83162         5.94032        -0.27863
C         24.76204         8.57894        -1.60591
C         23.48819        10.71450        -2.08454
C         23.45955        12.13021        -1.66121
C         24.79714         9.99742        -1.98824
C         24.69082        12.76838        -1.28642
C         23.38201        14.82035        -0.83177
C         23.35479        16.22123        -0.49352
C         24.61357        14.12280        -0.88387
C         24.57418        16.95689        -0.31784
C         23.28664        19.01902         0.04521
C         24.53767        18.37980        -0.09036
C         25.93569         2.25413        -0.05739
C         25.93762         3.65445        -0.40651
C         27.14365         1.52595        -0.16321
C         27.11427         4.23459        -0.93199
C         25.83974         6.41893        -1.30552
C         25.93056         7.88324        -1.55482
C         27.03196         5.57194        -1.54204
C         27.19315         8.51531        -1.91075
C         26.06462        10.70020        -1.68181
C         25.98387        12.07670        -1.33883
C         27.28396         9.97514        -1.75698
C         27.20137        12.74008        -1.01504
C         25.81490        14.81624        -0.38477
C         25.81652        16.28909        -0.30777
C         27.14323        14.10302        -0.45050
C         27.02806        16.99722        -0.13882
C         25.74991        19.09175         0.04572
C         26.99680        18.43165         0.01543
C         28.35192         2.14248        -0.57201
C         28.33500         3.52793        -0.97370
C         29.57922         1.44615        -0.67683
C         29.54008         4.18655        -1.39416
C         28.25129         6.23196        -2.02803
C         28.21666         7.64052        -2.30570
C         29.42172         5.47110        -2.02217
C         30.11347         8.72790        -1.89623
C         28.52824        10.68986        -1.50590
C         28.45526        12.09254        -1.11801
C         29.79990        10.05992        -1.47503
C         29.64924        12.84126        -0.74558
C         28.36180        14.91929        -0.37786
C         28.29242        16.31662        -0.14373
C         29.59829        14.24251        -0.42388
C         29.49875        17.06078         0.05096
C         28.20975        19.14851         0.15842
C         29.45504        18.48827         0.19377
C         30.79614         2.12759        -0.90748
C         30.80899         3.56115        -1.13739
C         32.02593         1.42250        -0.90344
C         32.03450         4.27235        -0.90410
C         31.29876         6.56579        -1.58765
C         31.12696         7.95212        -1.32160
C         32.09389         5.71582        -0.82158
C         31.91662         8.55587        -0.18696
C         31.00128        10.80212        -1.05414
C         30.90774        12.20570        -0.67463
C         32.17405        10.01157        -0.48524
C         32.06457        12.85603        -0.17328
C         30.78920        14.95281        -0.05537
C         30.74416        16.38402         0.16667
C         31.98874        14.24275         0.11306
C         31.91870        17.12959         0.45732
C         30.67469        19.20612         0.36795
C         31.89236        18.54543         0.50091
C         33.24874         2.11021        -0.80442
C         33.22781         3.53330        -0.59506
C         34.50865         1.45008        -0.86251
C         34.42769         4.15084        -0.14070
C         33.10054         6.34213         0.05782
C         33.19030         7.80971         0.12260
C         34.36538         5.54238         0.34642
C         34.30882         8.43860         0.62523
C         33.19982        10.70785         0.27105
C         33.23811        12.08908         0.23171
C         34.28359         9.92699         0.98551
C         34.45536        12.77047         0.63566
C         33.16156        14.92942         0.67678
C         33.15736        16.42219         0.82281
C         34.47000        14.23574         0.54692
C         34.44505        17.15383         0.90029
C         33.15748        19.36079         0.71740
C         34.44161        18.56516         0.88433
C         35.70646         2.08214        -0.52485
C         35.64225         3.44290        -0.01267
C         36.96071         1.39307        -0.84037
C         36.80291         4.17172         0.47985
C         35.59118         6.31730         0.57815
C         35.53207         7.68799         0.82444
C         36.82884         5.59742         0.63438
C         36.76536         8.36773         1.28144
C         35.64654        10.58853         0.65204
C         35.63676        12.09103         0.86469
C         36.79622         9.87669         1.33015
C         36.85132        12.79018         1.19542
C         35.72158        14.97950         0.86171
C         35.66404        16.44638         1.08753
C         36.91151        14.19710         1.25571
C         36.86637        17.12798         1.26860
C         35.65497        19.24777         1.00454
C         36.88334        18.55270         1.18563
C         38.09915         1.54668        -0.09417
C         37.98518         3.50247         0.82462
C         39.48963         1.26289        -0.37247
C         39.25728         4.12441         0.84295
C         38.05019         6.26910         0.94221
C         38.06060         7.67396         1.20676
C         39.28627         5.54717         0.96035
C         39.27467         8.38455         1.33940
C         38.09343        10.55760         1.36739
C         38.04186        12.01686         1.56906
C         39.28800         9.84166         1.44488
C         39.38253        12.77406         1.66198
C         38.13218        14.90594         1.44377
C         38.12469        16.40012         1.68630
C         39.36153        14.22863         1.44223
C         39.38445        17.08706         1.21469
C         38.13237        19.22574         1.16602
C         39.36033        18.50749         1.08048
C         40.51651         2.03044         0.12044
C         40.46382         3.36859         0.68414
C         41.67541         4.07584         0.85584
C         40.52467         6.22541         1.13324
C         40.52368         7.66971         1.29210
C         41.70502         5.44374         1.11305
C         41.72258         8.39662         1.39024
C         40.55742        10.54910         1.46915
C         40.60683        11.99832         1.42647
C         41.73773         9.79025         1.46747
C         41.75689        12.72800         1.12715
C         40.60132        14.90928         1.20867
C         40.59218        16.37292         1.06465
C         41.75966        14.13854         1.06462
C         41.77260        17.09113         0.76520
C         40.57331        19.19385         0.80857
C         41.75741        18.48465         0.65214
O         13.21273        11.31394        -3.09085
O         29.34818         8.17581        -2.93305
O         20.41276         7.57243        -3.07124
O         38.62996        12.39076         2.85949
O         16.29232        10.03744        -3.44096
O         33.31781         5.71822         1.36167
O          3.51846        10.60872         2.41331
O         18.31515        11.64751        -3.44397
O         32.94827        15.52452         1.99757
O         24.24186        10.37992        -3.30712
O         13.54237         7.50763         0.61383
O         20.36934         4.74198         1.46972
O         14.65027        14.01993        -2.67973
O          8.94397        11.49942         0.52861
O         32.16593        10.42762        -1.88823
O         30.56588         5.99296        -2.64509
O         26.37224        14.16519         0.81744
O          3.69725        17.03945        -1.35717
O         20.43854         5.38186        -1.99471
O         35.31729        14.71411        -0.55838
O         11.69078         3.59100        -1.67492
O         21.13835        11.66075        -3.40582
O         23.39158         7.87025         0.33733
O         36.51831         9.12047         2.55313
O          9.32199         9.01028        -2.31289
O          4.35284        13.31854        -1.54725
O         25.89485         5.64142        -2.53334
O         37.91065         2.15497         1.16974
O         15.28697        15.88533         1.34504
O          6.66480        17.07236        -1.84139
O         34.01059        10.02754         2.39843
H         34.77483         9.61156         2.87160
O         14.89994         0.28551         0.42252
H         14.90686         0.31415        -0.55619
O         32.98301        20.22440         1.85394
H         32.89589        19.66312         2.65176
O          9.14686        12.83914        -2.85577
H          9.84879        13.25140        -3.40180
O         31.08273         8.50579         1.01188
H         31.65471         8.69704         1.78688
O         38.13966        16.53345         3.16017
H         38.90223        16.01414         3.49422
O         19.69255         9.61444        -4.09506
H         19.65325        10.50473        -4.51208
O         35.89618        10.38456        -0.76691
H         35.22817        10.89609        -1.27305
O          8.47174         1.71211        -1.44338
H          9.24621         2.10363        -1.90253
O         25.33649         6.32849         1.02224
H         24.81418         7.11532         1.31010
H          0.76838         1.63790         2.96732
H          0.63553         4.06639         2.59971
H          2.88261         0.39419         2.51315
H          0.54659         5.93184         2.26355
H          0.50031         8.36185         2.05680
H          0.33796        10.24382         1.49537
H          0.31287        12.63787         1.15942
H          0.46744        14.50952         1.58514
H          0.48326        16.95173         1.71407
H          1.65545        19.12481         1.31417
H          5.20792         0.38291         1.75276
H          3.75635        20.33333         0.87684
H          7.45096         0.32253         0.83886
H          6.17101        20.22700         0.74248
H          9.91189         0.48803         0.98331
H          8.62278        20.11650         0.78641
H         12.41337         0.57499         0.99507
H         11.06599        20.01268         0.83285
H         14.77433         1.55225         2.03123
H         13.51635        19.93601         0.88732
H         17.32164         0.71885         1.18211
H         15.99241        19.84365         0.94862
H         19.79060         0.73122         1.13129
H         18.40775        19.87202         0.78166
H         22.26836         0.67433         0.88993
H         20.82233        19.97784         0.49017
H         24.69586         0.58949         0.60549
H         23.24945        20.09721         0.25925
H         27.15026         0.45559         0.09171
H         25.71936        20.17948         0.20664
H         29.60537         0.36308        -0.48426
H         28.17538        20.24268         0.26722
H         32.01736         0.32258        -0.89865
H         30.64287        20.30266         0.44536
H         34.53177         0.39558        -1.17521
H         33.28324        20.04244        -0.16809
H         36.98113         0.77942        -1.75374
H         35.66387        20.34655         0.95637
H         39.73891         0.39566        -1.00330
H         38.15137        20.32222         1.07715
H         41.53795         1.67894        -0.10185
H         42.62673         3.53137         0.76115
H         42.68326         5.92369         1.25305
H         42.68561         7.86878         1.37998
H         42.71110        10.29705         1.52066
H         42.70474        12.20699         0.93251
H         42.71848        14.63039         0.85200
H         42.72411        16.56016         0.62913
H         40.56309        20.28868         0.71032
H         42.69208        19.01944         0.43301
