         241
 CSIRO Nanostructure Databank - Neutral Graphene Oxide Data Set
C          1.14908         1.95800        -0.17142
C          1.11467         3.35724        -0.22469
C          2.35823         1.27710        -0.16331
C          2.30355         4.11486        -0.28875
C          1.10752         6.31505        -0.19389
C          1.13445         7.70394        -0.20296
C          2.29567         5.56745        -0.31195
C          2.34349         8.42021        -0.30806
C          1.16736        10.61721         0.28615
C          1.25758        11.86887         0.77577
C          2.36289         9.94187        -0.35443
C          2.50288        12.63391         0.72629
C          1.35384        14.77659         1.33387
C          1.38836        16.13908         1.58960
C          2.52300        14.05708         0.98657
C          2.59648        16.86498         1.49553
C          2.64733        18.27574         1.74814
C          3.58399         1.99493        -0.21868
C          3.55107         3.42714        -0.30112
C          4.82446         1.32285        -0.17805
C          4.77635         4.15554        -0.42220
C          3.52678         6.27824        -0.47615
C          3.54807         7.71172        -0.46417
C          4.73848         5.55404        -0.60924
C          4.82541         8.42256        -0.62355
C          3.64768        10.45422         0.30789
C          3.67446        11.96646         0.39101
C          4.86515         9.84959        -0.34474
C          4.92568        12.65983         0.28311
C          3.76143        14.76428         0.89070
C          3.79100        16.17539         1.13426
C          4.96388        14.08157         0.53746
C          5.00988        16.90066         1.01144
C          3.82172        18.97126         1.64535
C          5.04186        18.31118         1.27140
C          6.04684         2.03629        -0.16835
C          6.03364         3.46276        -0.30812
C          7.28518         1.37239         0.00007
C          7.25393         4.18938        -0.16876
C          5.99988         6.23548        -1.07022
C          5.97443         7.74056        -0.95814
C          7.18184         5.67539        -0.27647
C          7.26293         8.43193        -1.35952
C          6.03637        10.57770        -0.47393
C          6.08301        11.96644        -0.11368
C          7.17536        10.02456        -1.31102
C          7.41842        12.65053         0.02911
C          6.17873        14.81265         0.39012
C          6.20031        16.22485         0.62327
C          7.38241        14.15798        -0.01843
C          7.41864        16.95012         0.50753
C          6.25027        19.01321         1.15787
C          7.44466        18.35461         0.78279
C          8.48726         2.09349         0.13193
C          8.45110         3.53506         0.10564
C          9.72775         1.41289         0.26047
C          9.70902         4.27356         0.53050
C          8.44136         6.48071        -0.17164
C          8.50945         7.83665        -0.76421
C          9.72135         5.77059         0.17212
C          9.72218         8.50439        -0.93566
C          8.52770        10.65448        -0.97604
C          8.55521        12.00518        -0.71439
C          9.76169         9.92571        -1.08850
C          9.77604        12.76939        -1.00326
C          8.55947        14.88351        -0.18696
C          8.61400        16.28427         0.11156
C          9.77478        14.25329        -0.74857
C          9.84210        16.99591         0.01965
C          8.67920        19.04788         0.65861
C          9.84835        18.39554         0.29060
C         10.96047         2.11276         0.15811
C         10.94749         3.52173         0.08229
C         12.20767         1.38665         0.11304
C         12.22569         4.17420        -0.36762
C         10.99420         6.44263        -0.19796
C         11.01288         7.72194        -1.00339
C         12.26204         5.67851        -0.24350
C         12.26368         8.51822        -0.69824
C         11.02124        10.63466        -1.01389
C         11.05820        12.04764        -1.05864
C         12.26077         9.92491        -0.86424
C         12.28669        12.76577        -1.12537
C         11.06629        14.95977        -0.65795
C         11.06370        16.29328        -0.34560
C         12.27572        14.28783        -1.30828
C         12.30577        17.12133        -0.57778
C         11.12185        19.20451         0.16741
C         12.34860        18.31392         0.38837
C         13.44297         2.03486         0.22611
C         13.41047         3.54124         0.39920
C         14.67787         1.37354         0.32211
C         14.71869         4.19236         0.01539
C         13.43207         6.38024        -0.25181
C         13.45042         7.83586        -0.39617
C         14.72986         5.66762        -0.19095
C         14.69205         8.54066        -0.32766
C         13.49515        10.64222        -0.85402
C         13.49313        12.05652        -1.07947
C         14.71437         9.92547        -0.60898
C         14.79876        12.76171        -1.37328
C         13.57780        14.94696        -0.89882
C         13.59340        16.32182        -0.57398
C         14.81457        14.22758        -0.96356
C         14.79927        17.02630        -0.43621
C         13.63674        19.07072         0.29819
C         14.82101        18.41937        -0.03558
C         15.91951         2.07241         0.51461
C         15.95270         3.49538         0.42925
C         17.13247         1.39767         0.78063
C         17.13449         4.22581         0.62498
C         15.93576         6.44076         0.14734
C         15.90042         7.80819         0.04952
C         17.09596         5.73016         0.82933
C         17.17504         8.54015         0.20452
C         15.96240        10.66852        -0.59541
C         16.00067        12.01022        -0.85350
C         17.22618         9.97816        -0.20243
C         17.27326        12.75736        -0.70912
C         16.02405        14.89494        -0.84837
C         16.06789        16.39236        -0.91973
C         17.31616        14.19207        -1.18124
C         17.32639        17.00408        -0.36846
C         16.07271        19.08381         0.09844
C         17.30266        18.38023         0.01248
C         18.31883         2.11920         1.02350
C         18.31390         3.54257         0.96064
C         19.54474         1.44514         1.37118
C         19.48743         4.33115         1.48659
C         18.42471         6.41756         0.57462
C         18.43185         7.76213         0.26701
C         19.63068         5.72837         0.92596
C         19.68646         8.54205         0.33843
C         18.48031        10.51298        -0.88250
C         18.56528        12.01436        -0.65370
C         19.78075         9.78096        -0.51122
C         19.83006        12.73773        -1.00043
C         18.58344        14.89299        -0.71823
C         18.54690        16.28401        -0.38275
C         19.81094        14.20373        -0.73231
C         19.77469        16.95700        -0.06296
C         18.51592        19.03242         0.33479
C         19.74761        18.34773         0.28390
C         20.71652         2.13415         1.59052
C         20.77199         3.55308         1.51952
C         21.98663         4.24960         1.53936
C         20.87812         6.37744         0.98969
C         20.95600         7.84760         0.74791
C         22.03600         5.62848         1.31767
C         22.24058         8.55146         0.48504
C         21.10825        10.47748        -0.61125
C         21.13201        11.96299        -0.93189
C         22.28910         9.81132         0.01139
C         22.32975        12.75973        -0.61681
C         21.03637        14.86353        -0.45103
C         21.02299        16.26893        -0.12355
C         22.26279        14.10606        -0.42701
C         22.21064        16.99042         0.15580
C         20.96489        19.02326         0.57248
C         22.17387        18.34396         0.50056
O          7.46013         6.40429         0.94852
O         16.88406         5.86366         2.23790
O         20.61133         9.61722        -1.70569
O         17.26584         9.64771         1.20040
O         17.96110        12.51246         0.57112
O         20.49091        12.29213        -2.21799
O          6.87391        10.44146        -2.61200
O          9.56757        13.73152        -2.13262
O         20.17434         8.65975         1.71341
O         10.47087         6.56398         1.16934
O         13.24151         3.81971         1.80606
H         12.40617         3.40081         2.10593
O         11.13674        20.26983         1.11891
H         11.26847        19.85632         1.99910
O         18.24644        10.31664        -2.29129
H         19.12132        10.40717        -2.74016
O         12.17914        17.65543        -1.92669
H         12.11893        16.88082        -2.53206
O          2.40190        10.33464        -1.74800
H          1.59824         9.99177        -2.18978
O         12.24679        17.81704         1.75648
H         13.07356        17.33242         1.96437
O         12.36004         3.85785        -1.77884
H         13.24602         4.19726        -2.06392
O          6.17539         5.84713        -2.45952
H          6.66490         6.58946        -2.90749
O         19.13234         4.56670         2.90069
H         18.26026         5.09081         2.87822
O         14.86448         4.71736        -1.35382
O          9.74035         4.19394         1.99312
H         10.10264         5.05523         2.31162
O          7.48193         8.12866        -2.77174
H          7.20104         8.99516        -3.23238
O         16.14031        16.67292        -2.41114
H         15.22178        16.59812        -2.75403
O          3.61046         9.95775         1.68206
H          4.44725        10.21712         2.12117
O         17.36649        14.15566        -2.64955
H         17.16994        15.08146        -2.94501
O         12.11980        14.57055        -2.73716
H         11.23004        14.21522        -2.98792
O          7.78539        12.38082         1.45571
H          7.14576        12.87286         2.01558
O         14.92785        12.76010        -2.83098
H         15.80721        13.16988        -3.03885
O         11.12760         7.29360        -2.39515
H         11.09694         8.09004        -2.96612
H          0.20491         1.39731        -0.12835
H          0.13790         3.85937        -0.22010
H          2.37926         0.17924        -0.11139
H          0.13973         5.80789        -0.08338
H          0.18105         8.24142        -0.10926
H          0.18476        10.12294         0.27107
H          0.35570        12.34655         1.18425
H          0.39050        14.25489         1.40787
H          0.46347        16.66764         1.86253
H          1.71852        18.79352         2.02928
H          4.84105         0.22569        -0.09707
H          3.84684        20.05257         1.84432
H          7.30451         0.27422         0.05997
H          6.27139        20.09467         1.35839
H          9.73311         0.31422         0.30607
H          8.71639        20.12664         0.86993
H         12.17075         0.28680         0.08228
H         11.17528        19.66018        -0.85404
H         14.69942         0.27349         0.27478
H         13.66119        20.11158         0.65577
H         17.14400         0.29977         0.84704
H         16.08326        20.14249         0.39591
H         19.53786         0.34668         1.43100
H         18.49889        20.09595         0.61523
H         21.64823         1.57938         1.77900
H         22.92462         3.69444         1.68930
H         23.01007         6.13471         1.36993
H         23.17355         8.07440         0.82093
H         23.26412        10.31479        -0.06173
H         23.29925        12.25317        -0.50994
H         23.19900        14.63223        -0.19683
H         23.18786        16.49344         0.10236
H         20.93776        20.08834         0.84273
H         23.11344        18.87218         0.71473
