         232
 CSIRO Nanostructure Databank - Neutral Graphene Oxide Data Set
C        -10.93070         0.63638        -0.64240
C         -9.63987         1.38212        -0.40144
C         -8.88922         0.77998         0.79740
C         -7.57896         1.52927         1.02927
C         -6.28747         0.76858         1.23262
C         -5.02853         1.51649         1.04690
C         -3.78266         0.72938         0.97951
C         -2.48638         1.47342         0.85222
C         -1.33964         0.82114         0.18347
C         -0.06211         1.42217         0.30026
C          1.19737         0.70330         0.13503
C          2.40730         1.24913         0.89981
C          3.74598         0.66048         0.53144
C          4.92573         1.37930         1.11802
C          6.26210         0.62672         1.03756
C          7.57490         1.35386         1.03716
C          8.81160         0.60986         0.64197
C         10.00460         1.38193         0.38608
C         11.22023         0.63262         0.16725
C         -9.90464         2.88641        -0.20683
C         -8.65121         3.66186         0.17097
C         -7.48162         2.97061         0.68276
C         -6.26227         3.63611         0.81930
C         -5.00704         2.90679         0.96383
C         -3.73073         3.61104         0.83842
C         -2.52908         2.93582         0.75648
C         -1.24226         3.59062         0.58873
C         -0.06018         2.82486         0.65058
C          1.19201         3.56739         0.86283
C          2.49620         2.78673         0.96051
C          3.72221         3.51050         0.59525
C          4.99908         2.73348         0.35844
C          6.23401         3.53591         0.73344
C          7.55508         2.85324         0.95737
C          8.77543         3.55657         0.49284
C          9.96751         2.78036         0.31957
C         -8.64431         5.01201        -0.04851
C         -7.51293         5.84747         0.35884
C         -6.24679         5.11603         0.76052
C         -4.95076         5.84750         0.54019
C         -3.68313         5.08188         0.63072
C         -2.47423         5.61355        -0.12469
C         -1.19005         4.99963         0.36820
C          0.02283         5.70223         0.29180
C          1.24579         4.99439         0.51732
C          2.47819         5.65115         0.45435
C          3.72322         4.89869         0.48368
C          4.98028         5.59794         0.23423
C          6.22149         4.93911         0.28584
C          7.44600         5.62781         0.07507
C          8.68914         4.90354         0.14135
C         -7.40670         7.26456        -0.08265
C         -6.21096         7.87190        -0.31125
C         -4.95534         7.02717        -0.42647
C         -3.65314         7.80223        -0.37663
C         -2.44303         7.12045        -0.20199
C         -1.19793         7.80645        -0.22284
C          0.05102         7.13034         0.02655
C          1.27870         7.82762         0.08332
C          2.48963         7.09210         0.32077
C          3.76839         7.69658         0.34753
C          4.96900         7.00918         0.06576
C          6.16136         7.69119        -0.38356
C          7.37108         6.98498        -0.35585
C         -6.11612         9.28674        -0.61738
C         -4.92058         9.91033        -0.78260
C         -3.65370         9.21154        -0.63244
C         -2.44548         9.88846        -0.73598
C         -1.19381         9.22227        -0.51622
C          0.00288         9.91655        -0.59176
C          1.31729         9.35353        -0.13331
C          2.44225         9.77009        -1.10173
C          3.73431         9.60860        -0.72033
C          5.01953         9.75035        -1.38855
C          6.10502         8.97085        -1.09027
C        -11.03765        -0.67670        -0.36982
C         -9.91545        -1.45394         0.15483
C         -8.73598        -0.73088         0.62715
C         -7.57839        -1.40877         0.88073
C         -6.26208        -0.76565         1.26907
C         -5.16828        -1.37060         0.39505
C         -3.88744        -0.62422         0.34798
C         -2.66865        -1.26532        -0.18232
C         -1.62698        -0.39508        -0.49060
C          0.19715        -1.39289        -0.80042
C          1.28320        -0.62764        -0.26743
C          2.56112        -1.37836        -0.36232
C          3.85374        -0.62325        -0.12469
C          5.11487        -1.43474        -0.03681
C          6.40017        -0.67944         0.26877
C          7.54937        -1.53537         0.88386
C          8.82691        -0.77416         0.58876
C         10.03081        -1.51980         0.28818
C         11.24022        -0.73490         0.14554
C         -9.93619        -2.82287         0.07132
C         -8.81137        -3.65017         0.51538
C         -7.52600        -2.88981         0.87250
C         -6.25497        -3.57499         0.53951
C         -5.13505        -2.85402         0.21437
C         -3.86913        -3.50428        -0.16753
C         -2.65496        -2.69423        -0.52254
C         -1.26166        -3.43716        -0.67695
C          0.05473        -2.76165        -0.57752
C          1.27190        -3.50229        -0.36365
C          2.51836        -2.86331        -0.29581
C          3.72452        -3.62545        -0.10430
C          5.03511        -2.92878        -0.00427
C          6.20592        -3.70593         0.59211
C          7.48992        -2.93556         0.29464
C          8.75982        -3.67054        -0.00219
C         10.01574        -2.90188         0.12840
C         -8.70590        -5.06515         0.08462
C         -7.54314        -5.76795         0.15933
C         -6.23999        -5.09847         0.60517
C         -5.08781        -5.65081        -0.24912
C         -3.82578        -4.87258        -0.26762
C         -2.55870        -5.63757        -0.21748
C         -1.24626        -4.88962        -0.27600
C         -0.02398        -5.68198        -0.48880
C          1.23547        -4.94749        -0.64375
C          2.53022        -5.73251        -0.53120
C          3.75304        -5.01806        -0.11959
C          4.99768        -5.76149        -0.01397
C          6.22003        -5.12894         0.08968
C          7.48311        -5.83234        -0.06972
C          8.68651        -5.14782        -0.06182
C         -7.48656        -7.20778        -0.02805
C         -6.30961        -7.88313        -0.23483
C         -5.07993        -7.10671        -0.56112
C         -3.77118        -7.83637        -0.88011
C         -2.52469        -7.09742        -0.40027
C         -1.32167        -7.76416        -0.31253
C         -0.05066        -7.06538        -0.38834
C          1.19646        -7.82883        -0.44291
C          2.41036        -7.18751        -0.40601
C          3.66871        -7.95959        -0.28256
C          4.96261        -7.23794        -0.09448
C          6.23355        -7.95535        -0.34517
C          7.42083        -7.27343        -0.29428
C         -6.23080        -9.32474        -0.26872
C         -5.04169        -9.98184        -0.36358
C         -3.76786        -9.28634        -0.43322
C         -2.60275        -9.93823        -0.18223
C         -1.29125        -9.23387         0.04699
C         -0.06950        -9.95693        -0.44186
C          1.16589        -9.30469        -0.52007
C          2.36559       -10.01937        -0.71203
C          3.66569        -9.30488        -0.97459
C          4.95338       -10.04996        -0.70612
C          6.12770        -9.40289        -0.50866
O         -3.65106        -7.87103        -2.32899
H         -4.15865        -7.09734        -2.67140
O         -2.89048         0.85261         2.13218
O         -0.76911        -0.73324        -1.54586
O          3.28878        -0.76714        -1.49236
O          2.16938         0.76369         2.25727
H          2.82149         1.21945         2.84234
O          3.90448         9.06761         0.58811
O         -2.61889         5.11695        -1.49498
H         -1.87234         5.46627        -2.02483
O         -4.11426         5.95469         1.72410
O         -5.03869         6.41160        -1.75164
H         -5.01064         7.12866        -2.41906
O         -8.37082        -3.47502         1.90291
O         -8.76162         1.21611        -1.54287
H         -9.28928         1.31942        -2.36141
O          6.87358        -0.23810        -1.02909
H          6.75242        -0.99621        -1.65046
O          3.65908        -8.99078        -2.41194
H          3.56920        -9.83205        -2.90685
O         -9.70321         0.99088         1.97841
H         -9.10311         0.91102         2.75416
O          6.80195         3.42376         2.08441
O         -1.12950        -9.22399         1.52123
H         -1.76481        -8.56975         1.88509
O         -5.42671        -6.09562        -1.60538
O          5.12317         2.41073        -1.04669
H          5.11071         3.24269        -1.56405
O         -5.93917        -1.15393         2.61861
H         -6.49400        -0.61508         3.22389
O          1.53388         9.98349         1.15984
H          2.45212         9.75781         1.44274
O          7.88659        -3.01939        -1.08369
O          7.43686        -1.71230         2.31229
H          7.45066        -0.81451         2.73427
O          4.66246         1.69209         2.49838
H          5.46143         2.16579         2.84105
O          2.01693        -5.27663        -1.84176
O          5.96377        -3.84080         2.01190
H          6.43706        -3.11658         2.49161
O        -10.92685         3.08689         0.77202
H        -10.70924         2.50843         1.54262
O          1.85401         3.30364         2.16083
O         -5.98425        -5.47199         1.92728
O          7.00774         0.79162         2.28194
O         -7.11464         5.71712         1.77489
O         -2.08682        -3.09744        -1.81498
O         -4.88917        -0.56662        -0.78501
O         -1.84244        -5.19393         1.02474
O         -7.06575         1.27177         2.38523
O          4.23707        -7.88912         1.05173
O          5.33179        -2.23563        -1.24952
H         12.18744        -1.26362        -0.03785
H         12.15372         1.19317         0.00980
H         10.89140         3.31506         0.04966
H          9.60506         5.42436        -0.17777
H          8.29358         7.48787        -0.68457
H          7.05145         9.24510        -1.58619
H          5.14327        10.56153        -2.12260
H          2.18664        10.16067        -2.09679
H         -0.01911        10.99302        -0.82041
H         -2.43937        10.96766        -0.94952
H         -4.88742        10.98841        -0.99775
H         -7.05179         9.86203        -0.68542
H         -8.33427         7.85936        -0.10913
H         -9.50176         5.48856        -0.54742
H        -10.29391         3.30370        -1.17580
H        -11.78187         1.19167        -1.06472
H        -11.97359        -1.21478        -0.58492
H        -10.78556        -3.32168        -0.42121
H         -9.63252        -5.56960        -0.23512
H         -8.42347        -7.77927         0.07008
H         -7.16421        -9.89543        -0.15256
H         -5.01966       -11.08061        -0.30432
H         -2.63868       -11.00433         0.09629
H         -0.11271       -11.05089        -0.56145
H          2.32653       -11.11810        -0.78776
H          4.94868       -11.14748        -0.80097
H          7.05824        -9.98776        -0.43357
H          8.36843        -7.81428        -0.44347
H          9.62658        -5.70771        -0.18304
H         10.96820        -3.43020        -0.03570
