         276
 CSIRO Nanostructure Databank - Neutral Graphene Oxide Data Set
C        -11.12945         0.65191        -0.37229
C         -9.81040         1.15657        -0.92275
C         -8.64966         0.57778        -0.14133
C         -7.55322         1.30699         0.20285
C         -6.38938         0.62286         0.83952
C         -5.11891         1.37967         1.08051
C         -3.82357         0.60184         1.13699
C         -2.52459         1.33945         0.99564
C         -1.32652         0.55993         0.49667
C         -0.06427         1.33166         0.27381
C          1.19814         0.79038         0.87630
C          2.49190         1.53519         0.72893
C          3.81103         0.86481         1.09627
C          5.10912         1.51339         0.72138
C          6.35717         0.64622         0.51051
C          7.62956         1.51123         0.65351
C          8.94448         0.76179         0.60640
C         10.27922         1.45567         0.35848
C         11.18121         0.69706        -0.59144
C         -9.71405         2.64116        -1.10864
C         -8.62632         3.38672        -0.70800
C         -7.63109         2.80961         0.27030
C         -6.29158         3.53686         0.22477
C         -5.04391         2.82653         0.63914
C         -3.81225         3.61808         1.00001
C         -2.50775         2.87142         1.09442
C         -1.29639         3.61757         0.58632
C         -0.12368         2.83223         0.08083
C          1.15999         3.53101        -0.41639
C          2.49290         2.74392        -0.17721
C          3.79540         3.46134        -0.39718
C          5.11435         2.79485        -0.07316
C          6.41345         3.53896        -0.23637
C          7.64984         2.92891         0.29214
C          8.90100         3.60924         0.17523
C         10.10518         2.93495         0.08937
C         -8.45234         4.71854        -1.16426
C         -7.36869         5.54704        -0.78769
C         -6.37063         5.06879         0.26990
C         -5.01194         5.75265         0.12862
C         -3.80675         5.12242         0.75403
C         -2.48787         5.88550         0.74936
C         -1.20269         5.11836         0.61935
C         -0.03614         5.71259         0.21820
C          1.28923         4.93848         0.21359
C          2.47867         5.68742        -0.42299
C          3.77060         4.96205        -0.62443
C          5.06344         5.74520        -0.56070
C          6.37376         5.02080        -0.48490
C          7.58367         5.82562        -0.07873
C          8.86316         5.10390         0.18162
C         -7.26142         6.82457        -1.29817
C         -6.23685         7.75588        -0.72080
C         -4.95741         6.99957        -0.40898
C         -3.71870         7.82191        -0.42142
C         -2.49664         7.31688         0.26616
C         -1.15806         8.04651         0.11552
C         -0.02231         7.11095        -0.29533
C          1.24515         7.84027        -0.60799
C          2.51089         7.16689        -0.18828
C          3.77571         7.92538         0.04877
C          5.10890         7.15216         0.10164
C          6.31072         7.90169        -0.44102
C          7.50619         7.25478        -0.49148
C         -6.03865         9.02464        -1.51473
C         -4.84689         9.55029        -1.82241
C         -3.55714         8.80919        -1.56079
C         -2.32933         9.68097        -1.42651
C         -1.20396         9.26704        -0.79606
C          0.07197         9.98182        -0.91065
C          1.24869         9.31852        -0.76820
C          2.60210         9.91071        -1.08391
C          3.74791         9.45953        -0.12931
C          5.04398        10.00594        -0.67554
C          6.18237         9.30135        -0.81205
C        -11.25908        -0.62549         0.01469
C        -10.07443        -1.56699        -0.07665
C         -8.83874        -0.80291         0.39490
C         -7.67807        -1.50251         1.02161
C         -6.35505        -0.89121         0.58984
C         -5.12853        -1.56517         1.19929
C         -3.82502        -0.89428         0.75917
C         -2.58272        -1.53992         1.35427
C         -1.27896        -0.96465         0.79417
C         -0.03074        -1.42765         1.54413
C          1.22301        -0.62745         1.39881
C          2.49899        -1.32667         1.01149
C          3.80590        -0.64017         1.31583
C          5.10254        -1.41063         1.38047
C          6.43794        -0.61178         1.42845
C          7.67431        -1.44432         0.96851
C          8.73732        -0.67467         0.21702
C          9.82959        -1.39096        -0.50750
C         11.04284        -0.61075        -0.86647
C        -10.22925        -2.89595         0.69649
C         -8.90907        -3.63997         0.63298
C         -7.74065        -2.98586         1.28619
C         -6.50100        -3.77319         1.59313
C         -5.17854        -2.99669         1.68366
C         -3.89130        -3.80186         2.01827
C         -2.58553        -2.97796         1.78755
C         -1.25221        -3.72352         1.76983
C          0.03959        -2.93731         1.67364
C          1.32003        -3.61374         1.22807
C          2.48365        -2.78302         0.72946
C          3.81651        -3.47766         0.53353
C          5.12978        -2.83052         0.84166
C          6.36606        -3.70568         1.13057
C          7.66200        -2.93649         0.78046
C          8.72120        -3.58167        -0.06465
C          9.80065        -2.86320        -0.52352
C         -8.70336        -4.77231        -0.07464
C         -7.46738        -5.54502         0.02526
C         -6.55561        -5.30767         1.25911
C         -5.15224        -5.97744         1.10162
C         -3.87280        -5.22298         1.39670
C         -2.57356        -5.70525         0.77889
C         -1.27793        -5.18850         1.36931
C          0.00050        -5.87228         0.94900
C          1.27177        -5.06772         0.86821
C          2.40556        -5.60865         0.05895
C          3.72442        -4.92880         0.17394
C          4.96426        -5.77607         0.18899
C          6.29320        -5.12633         0.48730
C          7.44968        -5.71427        -0.24174
C          8.60537        -4.97377        -0.40996
C         -7.33992        -6.67624        -0.71476
C         -6.43937        -7.79795        -0.26036
C         -5.11400        -7.25175         0.26270
C         -3.83309        -7.69044        -0.35326
C         -2.56391        -6.94226        -0.06654
C         -1.33405        -7.80407        -0.18558
C         -0.02919        -7.21960         0.23483
C          1.13570        -7.68585        -0.63949
C          2.48204        -7.10584        -0.17908
C          3.61341        -7.27664        -1.17770
C          4.89402        -6.92163        -0.74961
C          6.08614        -7.58362        -1.17822
C          7.31513        -7.00228        -0.88147
C         -6.26793        -8.84858        -1.32839
C         -5.11541        -9.18083        -1.91914
C         -3.78634        -8.52560        -1.62699
C         -2.66413        -9.58653        -1.51578
C         -1.31902        -8.99428        -1.10292
C         -0.17120        -9.67218        -1.34529
C          1.17512        -9.27665        -0.74478
C          2.40340        -9.70238        -1.54009
C          3.68097        -9.74318        -1.00923
C          4.92829        -9.76786        -1.84378
C          5.95923        -8.88300        -1.86654
O         -0.69382        -8.18968         1.09144
O         -4.32220        -8.35211         0.84253
O         -2.56170        -1.86247         2.74409
O          2.92615         5.33740        -1.76143
O          6.25933         0.10949        -0.81513
H          6.21822         0.85543        -1.46117
O         -3.41448         8.22673         0.93931
O         -2.50581        -5.61428        -0.69015
O          0.54995        -0.74306         2.68055
O          8.40328         1.17680         1.86820
O          8.23005        -2.30966         1.99029
O          5.86461         5.51393        -1.75721
O          4.65106        -2.84932        -0.51827
O         -6.03843         1.09116         2.17140
O         -8.58423        -0.73965         1.86210
O          0.47143         7.16831        -1.66726
O          5.63321        -6.02422         1.44753
O          2.24775        -1.82967        -0.35221
O          1.64725         1.74641         1.89366
O          5.33649         6.90085         1.50821
O          6.62507        -0.20541         2.77208
H          6.71843        -1.00794         3.32680
O         -1.20525         3.18465        -0.82621
O         -4.43933        -6.17185         2.34038
O         -3.27582         5.76235         1.96052
O          3.92499        -9.90973         0.29844
H          3.05928        -9.90346         0.78246
O          1.77712        -4.62461         2.17049
O         -2.97096         0.81438         2.28474
O          3.37955        -7.48836        -2.49381
H          4.22474        -7.43880        -2.98724
O         -7.42722        -3.39150         2.64826
O          5.87747         2.69393        -1.32704
O         -6.87865         5.48716         1.55987
O         -5.26951        -1.85467         2.59924
O          3.19166         2.61323        -1.43746
O          1.65833         4.72132         1.59075
H          1.72520         5.58819         2.04883
O         -0.77042         0.72284        -0.85050
O         -3.19431         3.30830         2.27928
O          2.87871        -7.70532         1.06534
H          2.27176        -7.41135         1.77756
O        -10.61090        -2.65129         2.04515
H         -9.86019        -2.21325         2.50747
O          2.90825         7.52876         1.17116
O          8.63919        -0.82046        -1.22965
O         -9.69472         0.62564        -2.29682
H         -8.80167         0.85615        -2.63210
O         -0.44633        -3.44455         2.93980
O          2.94506        -4.92778        -1.10147
O         10.99765         1.43682         1.63284
H         10.32978         1.62145         2.33343
O         -5.38807         3.00450        -0.78692
O         -9.40704         2.42592         1.82886
H         -9.14502         1.59752         2.30790
O         -0.75277         8.45077         1.39670
O         -0.54452        -6.01731         2.29359
O         -6.35423        -1.10115        -0.84369
H         -5.43251        -0.98807        -1.18408
O          1.27671        -9.84783         0.56963
H          0.46175        -9.59668         1.07220
O          2.98211         9.45703        -2.39258
H          2.20606         9.51317        -2.98713
O          4.32348        -1.16238         2.57790
O          3.53166        10.06684         1.15272
H          3.06032         9.40924         1.71515
O         -7.26272        -6.02588         2.21219
O         -1.14642        -1.65783        -0.48768
H         -0.64945        -1.05037        -1.09715
O          4.58944         1.63166         2.06328
O         -3.32452         7.95696        -2.73247
H         -3.14150         8.53790        -3.50033
O         -6.81059         8.17499         0.55585
H         -6.79978         7.39656         1.16656
O         -9.86609        -1.95522        -1.45019
H         -9.86404        -1.13276        -2.00330
O         -3.93300        -4.02402         3.42748
H         -4.01461        -3.14641         3.86247
O         -3.46007        -7.61283        -2.69914
H         -3.57123        -8.08165        -3.55168
O          0.95561         3.63375        -1.81634
H          1.78832         3.95213        -2.24054
O         -8.15003         3.11150         1.66040
H         -7.62389         4.89400         1.82190
O          6.32244        -3.87020         2.55400
H          7.03768        -4.48027         2.82848
O          0.80098        -7.12742        -1.92240
H          1.49228        -7.37357        -2.57546
O         -3.05009       -10.56968        -0.55265
H         -3.43637       -10.11335         0.22899
O         -3.73521        -1.01120        -0.68290
H         -2.81420        -1.28905        -0.93673
O         -7.13131        -8.41772         0.84541
H         -7.25224        -7.71466         1.54544
O          8.05337         5.60982         1.29538
H          6.29696         6.79738         1.68223
H         11.80464        -1.12184        -1.47581
H         12.08423         1.22675        -0.93095
H         11.03168         3.52587         0.01613
H          9.82737         5.63624         0.04664
H          8.41867         7.77967        -0.81078
H          7.08527         9.79360        -1.20482
H          5.03742        11.07110        -0.95185
H          2.54360        11.03510        -1.06746
H          0.06528        11.05307        -1.16861
H         -2.30013        10.59966        -2.03741
H         -4.79239        10.50710        -2.36659
H         -6.95803         9.57890        -1.76123
H         -8.01417         7.19433        -2.01295
H         -9.19298         5.12356        -1.87234
H        -10.45805         3.10483        -1.77650
H        -11.97740         1.35088        -0.32141
H        -12.21761        -1.00239         0.40196
H        -11.03296        -3.50411         0.21436
H         -9.52490        -5.21914        -0.65647
H         -8.07825        -6.88308        -1.50636
H         -7.18739        -9.38711        -1.60568
H         -5.10829        -9.97416        -2.68427
H         -2.54927       -10.10957        -2.50194
H         -0.22046       -10.60019        -1.93689
H          2.31993        -9.59305        -2.63192
H          5.04185       -10.66138        -2.48273
H          6.83080        -9.16223        -2.48331
H          8.23775        -7.49494        -1.22279
H          9.42526        -5.40932        -1.00121
H         10.60179        -3.38911        -1.06507
