         424
 CSIRO Nanostructure Databank - Neutral Graphene Oxide Data Set
C          0.97321         3.96654         1.28971
C         -0.20041         4.68374         1.22408
C          1.02233         6.75405         0.79383
C         -0.17517         6.07871         0.99292
C          1.03716         8.26330         0.66325
C         -0.11968         8.82696        -0.12503
C          1.17053        10.84597        -0.64489
C         -0.05855        10.06769        -0.65178
C          1.20340        12.20423        -1.05057
C          0.00333        12.94112        -1.32395
C          1.27280        14.99840        -1.73178
C          0.03741        14.26737        -1.64823
C          1.29172        16.40254        -1.95679
C          0.06882        17.16704        -2.09709
C          1.31878        19.30737        -2.44971
C          0.05961        18.50543        -2.27927
C          1.30581        20.66299        -1.77383
C          0.11619        21.30235        -1.43877
C          1.30399        23.33556        -0.79743
C          0.11232        22.61034        -0.94393
C          1.30721        24.71829        -0.34982
C          0.08013        25.39386        -0.11759
C          1.25043        27.44748         0.46590
C          0.04874        26.71908         0.24720
C          1.21885        28.81972         0.85231
C          0.02916        29.57544         0.84660
C          1.22722        31.63641         1.45716
C          0.01483        30.92055         1.16282
C          1.17759        33.08647         1.68856
C         -0.04413        33.78631         1.72521
C          1.10241        35.92380         1.86999
C         -0.08923        35.17476         1.81266
C          1.08748        37.37496         1.85678
C          3.43724         3.91610         1.25418
C          2.22811         4.62517         1.12400
C          3.50664         6.69573         0.67210
C          2.25100         6.03517         0.85535
C          3.54035         8.09751         0.31071
C          2.35320         8.82603         0.17221
C          3.63319        10.83366        -0.51526
C          2.38125        10.17324        -0.30613
C          3.65643        12.16772        -0.97544
C          2.45942        12.88099        -1.19550
C          3.74061        14.97922        -1.61523
C          2.49436        14.28505        -1.54180
C          3.76411        16.39246        -1.82490
C          2.53518        17.10742        -1.98393
C          3.77094        19.22648        -1.98358
C          2.55854        18.52685        -2.08939
C          3.78693        20.67123        -1.82280
C          2.54252        21.34472        -1.58636
C          3.77014        23.41054        -1.00998
C          2.53867        22.69318        -1.11591
C          3.78258        24.77817        -0.52855
C          2.52748        25.42094        -0.17054
C          3.72626        27.51780         0.46415
C          2.50358        26.77636         0.28605
C          3.73921        28.84230         0.88195
C          2.46177        29.44619         1.41866
C          3.71420        31.62777         1.86764
C          2.43247        30.95330         1.45273
C          3.66452        33.13028         1.73732
C          2.39363        33.81849         1.82388
C          3.57034        36.02512         2.00144
C          2.33427        35.23399         1.91827
C          3.53206        37.49183         1.76629
C          2.22942        38.11607         1.78177
C          5.89535         3.86003         1.28998
C          4.68279         4.56553         1.11861
C          5.97838         6.62171         0.61635
C          4.71324         5.97206         0.79886
C          6.01989         8.00832         0.24973
C          4.80991         8.73373         0.07360
C          6.11432        10.77018        -0.37894
C          4.86131        10.11228        -0.27496
C          6.11350        12.27523        -0.48128
C          4.98103        12.77121        -1.37442
C          6.20047        14.94440        -1.46290
C          4.97384        14.28103        -1.43836
C          6.25748        16.37862        -1.70800
C          5.00659        17.09756        -1.89048
C          6.24876        19.25213        -2.13996
C          4.99767        18.50310        -1.97386
C          6.28137        20.70472        -1.87655
C          5.00535        21.38502        -1.72024
C          6.20321        23.55923        -1.44813
C          4.97026        22.77047        -1.38347
C          6.22934        24.89440        -0.83657
C          4.99017        25.47460        -0.41443
C          6.16246        27.67548        -0.08450
C          5.03474        26.77322         0.35215
C          6.19742        29.03311         0.48579
C          4.96183        29.63036         0.91350
C          6.14122        31.77457         1.12051
C          4.94817        30.99784         1.24327
C          6.09774        33.18030         1.31216
C          4.84902        33.83449         1.58383
C          5.95890        36.08783         1.10737
C          4.86005        35.30112         1.76983
C          5.99809        37.53661         1.56111
C          4.70493        38.19822         1.64793
C          8.35671         3.80393         1.34884
C          7.14475         4.50268         1.14988
C          8.44868         6.54426         0.60880
C          7.18114         5.89979         0.79626
C          8.48407         7.93490         0.23705
C          7.27841         8.66021         0.06662
C          8.59460        10.73101        -0.41019
C          7.31612        10.06651        -0.22971
C          8.64731        12.12887        -0.77988
C          7.43335        12.87477        -0.91788
C          8.71530        14.90544        -1.67936
C          7.43196        14.20324        -1.31019
C          8.71019        16.34523        -1.16803
C          7.46876        17.05059        -1.66681
C          8.79720        19.21530        -1.70912
C          7.55940        18.46852        -2.00679
C          8.77190        20.62970        -1.66444
C          7.50604        21.34566        -1.72175
C          8.76141        23.48993        -1.15304
C          7.54730        22.81774        -1.61922
C          8.72177        24.87868        -0.84311
C          7.45956        25.55771        -0.72048
C          8.71197        27.70576        -0.17299
C          7.45806        27.01378        -0.48552
C          8.67399        29.06282         0.23601
C          7.40514        29.73859         0.48540
C          8.59737        31.87695         0.77524
C          7.39284        31.13731         0.79554
C          8.57428        33.29111         0.95499
C          7.30322        33.97211         1.16682
C          8.47239        36.19602         0.90094
C          7.26426        35.35474         1.18362
C          8.50249        37.46965         1.75194
C          7.17747        38.19554         1.71660
C         10.82158         3.75129         1.45512
C          9.60848         4.44390         1.19412
C         10.96044         6.42762         0.41327
C          9.64061         5.82049         0.79952
C         10.94946         7.93127         0.38429
C          9.74432         8.61180         0.10318
C         11.10451        10.56791        -0.68153
C          9.77226         9.99905        -0.25365
C         11.13431        12.07492        -0.76096
C          9.90387        12.78661        -0.94096
C         11.17242        14.87764        -1.26221
C          9.96129        14.17997        -1.23413
C         11.17618        16.31496        -1.52856
C         10.00969        17.04898        -1.51970
C         11.23196        19.22255        -1.68167
C         10.01774        18.49894        -1.62551
C         11.22375        20.62479        -1.60885
C         10.00403        21.34073        -1.53452
C         11.19795        23.46078        -1.04622
C         10.00603        22.77459        -1.23640
C         11.18661        24.78825        -0.32612
C          9.92924        25.58979        -0.55040
C         11.17094        27.67412         0.04037
C          9.93195        26.97464        -0.22576
C         11.14330        29.06021         0.37287
C          9.88699        29.74669         0.48960
C         11.05874        31.87499         0.84975
C          9.87345        31.17713         0.70790
C         11.07279        33.35036         0.58231
C          9.76753        34.03777         0.90209
C         10.95938        36.19698         0.98543
C          9.76768        35.44295         1.00034
C         10.89488        37.65724         1.01808
C          9.70271        38.29518         1.34780
C         13.24753         3.77661         1.92099
C         12.07489         4.42124         1.47673
C         13.32032         6.52312         1.28864
C         12.14103         5.81050         1.11679
C         13.31920         8.00152         1.19408
C         12.16276         8.67567         0.55267
C         13.45565        10.80130         0.28975
C         12.23486         9.99573         0.14186
C         13.62406        11.95030        -0.68740
C         12.34434        12.74864        -0.78713
C         13.64297        14.83184        -0.95836
C         12.40210        14.16875        -0.99863
C         13.72529        16.24520        -1.37955
C         12.47847        16.98585        -1.76322
C         13.58904        19.13283        -0.91185
C         12.55930        18.51813        -1.89714
C         13.72203        20.62534        -1.13364
C         12.54602        21.34989        -1.78585
C         13.74229        23.53147        -1.00195
C         12.48237        22.83843        -1.41203
C         13.68038        24.92467        -0.49106
C         12.46814        25.58986        -0.40668
C         13.62606        27.72975         0.10145
C         12.42746        27.00794        -0.08997
C         13.58858        29.08450         0.50696
C         12.36541        29.74999         0.63123
C         13.58626        31.96622         0.82950
C         12.34325        31.16205         1.18789
C         13.55228        33.38327         0.82381
C         12.26240        34.06290         1.21995
C         13.38334        36.26394         0.65300
C         12.22144        35.54342         0.91212
C         13.31604        37.71012         0.53046
C         12.09514        38.37627         0.75686
C         15.68745         3.78496         2.31284
C         14.48426         4.46100         1.97016
C         15.79419         6.53469         1.60320
C         14.52768         5.86292         1.67480
C         15.88172         7.94114         1.29046
C         14.64125         8.73631         1.29258
C         16.01690        10.72756         0.47044
C         14.70444        10.15979         0.83581
C         16.07165        12.07021        -0.02125
C         14.86053        12.76689        -0.40096
C         16.12042        14.87346        -0.65442
C         14.86680        14.13738        -0.67367
C         16.15379        16.25353        -0.73468
C         14.93707        17.01870        -0.99342
C         16.07761        19.09796        -0.25343
C         14.90580        18.37962        -0.87822
C         16.13235        20.57606        -0.54925
C         14.92332        21.29784        -0.84270
C         16.14337        23.42263        -0.43722
C         14.97397        22.74474        -0.79353
C         16.12322        24.87195        -0.24302
C         14.93152        25.58974        -0.28822
C         16.09903        27.62845         0.62241
C         14.95689        27.10131        -0.25330
C         16.12911        29.13823         0.54968
C         14.84395        29.81385         0.95478
C         16.00440        32.00927         0.41146
C         14.81036        31.29448         0.65354
C         15.96651        33.45615         0.32627
C         14.70771        34.13295         0.56178
C         15.78679        36.32195         0.18027
C         14.65104        35.58422         0.48601
C         15.70977        37.74817        -0.03042
C         14.48545        38.42092         0.19506
C         18.15698         3.75213         2.54589
C         16.92352         4.42616         2.19974
C         18.29147         6.35413         1.33289
C         16.97453         5.78580         1.76999
C         18.33523         7.85538         1.23909
C         17.12309         8.58082         1.07941
C         18.45912        10.62489         0.54890
C         17.18673         9.99231         0.71120
C         18.51564        12.00324         0.16632
C         17.31982        12.70357        -0.14217
C         18.63840        14.83103        -0.38754
C         17.39562        14.07048        -0.77145
C         18.64059        16.25076        -0.42934
C         17.40418        16.98611        -0.56763
C         18.61891        19.10602        -0.33742
C         17.39005        18.37430        -0.44553
C         18.60724        20.53736        -0.30876
C         17.35430        21.25825        -0.41084
C         18.61022        23.37040        -0.16844
C         17.37449        22.68957        -0.34241
C         18.60254        24.80675         0.12906
C         17.36295        25.57108         0.02342
C         18.62370        27.67914         0.16563
C         17.40038        26.94593         0.25069
C         18.57970        29.15311         0.23801
C         17.26664        29.85127         0.31032
C         18.39590        32.01953        -0.16861
C         17.25331        31.31318         0.21891
C         18.46116        33.52277        -0.05465
C         17.12560        34.18811         0.09201
C         18.10292        36.33387        -0.79373
C         17.15227        35.68843         0.19633
C         17.96679        37.72934        -1.03502
C         16.82455        38.43391        -0.54673
C         19.36489         4.40537         2.51215
C         20.68410         6.44288         2.01096
C         19.47738         5.74201         2.02778
C         20.75685         7.76010         1.53577
C         19.59653         8.49296         1.17352
C         20.89099        10.56378         0.62818
C         19.66712         9.90050         0.79504
C         20.94552        11.92056         0.29121
C         19.78328        12.66829         0.08222
C         21.02494        14.84586         0.06555
C         19.81980        14.11971        -0.11276
C         21.04779        16.22213        -0.02202
C         19.85921        16.96056        -0.24557
C         21.06327        19.14319        -0.20783
C         19.85377        18.40351        -0.27558
C         21.05445        20.51810        -0.20899
C         19.83474        21.24703        -0.26321
C         21.06073        23.44295        -0.39016
C         19.83876        22.68942        -0.23027
C         21.10752        24.80296        -0.37166
C         19.94649        25.59174         0.05444
C         20.93455        27.79610        -0.69039
C         19.84127        27.04608        -0.13523
C         20.89143        29.14827        -0.83841
C         19.78842        29.93058        -0.27106
C         20.50873        32.05835        -1.38380
C         19.58954        31.35721        -0.62332
C         20.31636        33.43407        -1.70449
C         19.32471        34.18314        -1.11797
C         20.10810        36.31647        -2.16979
C         19.17510        35.61607        -1.36471
C         19.99124        37.69098        -2.38074
C         18.93457        38.40157        -1.82266
O         13.25903        23.61289        -2.42429
O         13.89632        11.08854         1.64840
O          7.00414        18.82558        -3.32029
O          6.88753        23.49819        -2.73986
O         19.56694        29.70385         1.17044
O         13.30353        16.34974        -2.80703
O         19.38116        25.14360         1.32194
O          4.48782        35.69147         3.11950
O          6.55729        27.67687        -1.48009
O         13.78303         8.57188         2.46888
O          8.34233        36.64481        -0.50062
H          8.67704        35.92250        -1.07363
O          8.72129        37.04698         3.13159
H          8.66327        37.83799         3.70640
O          8.63995        16.28803         0.28558
H          8.75894        17.19559         0.63503
O          5.38947        26.40332         1.73314
H          4.58864        26.03073         2.15937
O          8.76171        14.98223        -3.13171
H          8.74980        14.06841        -3.48519
O         11.25829        33.48353        -0.87094
H         10.55648        32.95959        -1.31226
O         12.81471        21.28916        -3.21080
H         13.29632        22.11883        -3.44465
O          5.83726        12.78021         0.85713
H          6.58511        12.52691         1.43743
O         15.79272        27.22197         1.97812
H         16.53538        27.49236         2.55676
O         11.15155         6.04180        -1.02031
H         10.29018         6.17448        -1.47187
O          2.46078        29.03790         2.87758
H          1.58446        29.30108         3.23583
O         15.79264        19.03777         1.21180
H         16.00361        18.12614         1.50974
O          0.87380         8.76712         2.03855
H          0.91771         9.74610         1.99438
O         19.20043        33.76424         1.22651
H         20.04845        33.27291         1.15908
O          1.42156        19.60062        -3.89022
H          1.55447        18.74696        -4.35392
O         15.25920        27.53081        -1.61648
H         14.58566        27.13936        -2.21223
O          5.27000        12.29013        -2.72217
H          4.55560        12.60603        -3.31402
O          3.85549        31.36649         3.31239
H          3.61273        30.41540         3.44698
O         17.52090        13.81616        -2.22482
H         17.56805        14.68896        -2.67055
O         11.10912        24.40635         1.11944
H         11.08342        25.24076         1.63685
O         18.42803         5.90172        -0.09109
H         19.29999         6.22770        -0.40357
O         13.02974        18.96674         0.43302
H         13.75677        19.18863         1.06452
O         12.99278        18.80677        -3.23259
H         13.32784        17.96590        -3.62346
O         17.69749        36.00724         1.53226
H         18.43694        35.36991         1.69257
O         14.81237        29.73715         2.43576
H         15.60098        30.21745         2.76820
O          5.61327        36.13076        -0.31798
H          6.39511        36.53300        -0.76957
O         12.10595        33.93178         2.65499
H         12.89316        34.32072         3.08840
O         11.29273        10.09978        -2.06642
H         11.41204         9.12651        -2.03204
O         13.86391        11.31145        -1.98064
H         13.82874        12.00418        -2.67340
O         12.35158        31.00435         2.64451
H         13.16826        30.48581         2.86153
H          0.95947         2.88503         1.48750
H         -1.16645         4.17983         1.36786
H         -1.12752         6.62657         0.99110
H         -1.06319         8.26452        -0.17493
H         -0.94609        10.48294        -1.15051
H         -0.97066        12.43960        -1.24641
H         -0.91385        14.78404        -1.82985
H         -0.89524        16.64239        -2.04759
H         -0.90393        19.01314        -2.42950
H         -0.84738        20.79217        -1.56866
H         -0.85609        23.06265        -0.69579
H         -0.87360        24.86846        -0.25201
H         -0.92494        27.20114         0.40306
H         -0.91563        29.10711         0.53817
H         -0.94293        31.45317         1.12403
H         -0.99625        33.24367         1.66192
H         -1.05889        35.69283         1.81260
H          0.10822        37.87639         1.85887
H          3.41178         2.84032         1.48341
H          2.17272        39.21314         1.71978
H          5.86408         2.78998         1.54371
H          4.67683        39.29897         1.61833
H          8.32534         2.74289         1.63789
H          7.17049        39.26613         1.98316
H         10.77674         2.69263         1.75088
H          9.68554        39.38920         1.47478
H         13.20859         2.71313         2.20008
H         12.07006        39.47605         0.73431
H         15.64481         2.72710         2.61210
H         14.43745        39.51233         0.06337
H         18.10080         2.71426         2.90494
H         16.75321        39.51738        -0.72513
H         20.27442         3.89670         2.86664
H         21.59437         5.96231         2.39983
H         21.73729         8.25415         1.53132
H         21.83796        10.02840         0.77761
H         21.93384        12.39053         0.19918
H         21.96161        14.31611         0.28308
H         22.00360        16.74178         0.12360
H         22.02789        18.62180        -0.16050
H         22.01144        21.05186        -0.14795
H         21.97921        22.89990        -0.65205
H         22.04070        25.31416        -0.64614
H         21.80893        27.24845        -1.06883
H         21.70341        29.66053        -1.37246
H         21.38989        31.55197        -1.79932
H         21.00626        33.88366        -2.43163
H         20.95414        35.78521        -2.62514
H         20.73861        38.21038        -2.99682
H         18.83187        39.48153        -2.00007
