         427
 CSIRO Nanostructure Databank - Neutral Graphene Oxide Data Set
C         27.90207        27.65441        -1.63432
C         27.89391        29.01926        -1.25185
C         26.67734        29.74916        -1.09431
C         27.92218        31.75355        -0.44657
C         26.69473        31.06574        -0.70748
C         27.95301        33.13005        -0.03765
C         26.75589        33.88556         0.08902
C         28.02121        35.87253         0.72802
C         26.79013        35.20399         0.46692
C         28.02943        37.28460         1.03817
C         26.81875        38.00218         1.18960
C         28.00871        40.10787         1.52000
C         26.80728        39.36346         1.40782
C         27.96075        41.52814         1.65745
C         26.76642        42.28561         1.61321
C         27.97751        44.41146         1.82010
C         26.76341        43.66367         1.76521
C         27.98748        45.82767         1.72664
C         30.33544        27.57507        -1.49332
C         29.09320        26.94799        -1.72595
C         30.35429        28.96823        -1.19302
C         29.12848        29.68358        -1.01417
C         30.39268        31.69977        -0.30110
C         29.14633        31.05304        -0.60666
C         30.40665        33.01684         0.17514
C         29.19598        33.76130         0.27117
C         30.50070        35.83469         0.83219
C         29.23199        35.15074         0.64047
C         30.50325        37.26377         1.06149
C         29.26721        37.97713         1.17443
C         30.50050        40.05921         1.59386
C         29.26415        39.38879         1.44670
C         30.49822        41.47381         2.01396
C         29.20420        42.24726         1.98304
C         30.42122        44.42432         1.64978
C         29.22353        43.72556         1.85069
C         30.40735        45.82180         1.38955
C         29.17060        46.50998         1.51927
C         32.77289        24.71869        -1.10302
C         31.58309        25.41724        -1.28413
C         32.82799        27.49993        -1.40349
C         31.58986        26.81962        -1.42862
C         32.81359        28.99588        -1.61748
C         31.58721        29.66057        -1.06317
C         32.87306        31.64277        -0.40923
C         31.63245        30.98636        -0.57909
C         32.92905        32.91152         0.34448
C         31.64804        33.59868         0.81788
C         32.97366        35.81054         0.89167
C         31.70699        35.12491         0.76372
C         32.98955        37.25327         1.12401
C         31.73579        37.96120         1.19451
C         32.97964        40.09845         1.41200
C         31.73365        39.37342         1.42213
C         32.99521        41.51880         1.46565
C         31.80662        42.26314         2.04491
C         32.97023        44.43930         1.48082
C         31.66595        43.62574         1.32576
C         32.86687        45.84495         0.93642
C         31.61622        46.51019         0.94971
C         32.73995        48.50946         0.11627
C         31.58424        47.85451         0.49175
C         35.35691        23.23485        -1.34881
C         35.25220        24.60526        -0.72498
C         34.00553        25.38127        -1.07851
C         35.32235        27.49022        -1.22414
C         34.04548        26.79080        -1.24017
C         35.34648        28.95182        -1.63321
C         34.09237        29.67927        -1.24305
C         35.36345        31.71681        -0.70732
C         34.10631        30.99739        -0.79295
C         35.37828        33.21618        -0.49799
C         34.19547        33.69397         0.32176
C         35.48243        35.75612         0.93202
C         34.17499        35.12818         0.68734
C         35.49023        37.25157         1.24159
C         34.19815        37.96139         1.21570
C         35.43361        40.12689         1.22668
C         34.21344        39.40009         1.26212
C         35.41742        41.53280         1.10717
C         34.16729        42.22003         1.17013
C         35.40102        44.43396         0.90917
C         34.10969        43.67963         0.78234
C         35.35612        45.83313         0.73564
C         34.06154        46.52153         0.64155
C         35.22849        48.58409        -0.08267
C         34.01525        47.88734         0.22210
C         35.23753        49.81922        -0.74952
C         37.78278        23.24854        -0.99014
C         36.54167        22.58845        -1.37726
C         37.73736        24.68557        -0.84770
C         36.53988        25.37405        -0.90274
C         37.79971        27.52569        -1.07339
C         36.51918        26.81552        -1.02831
C         37.80006        28.96457        -1.16248
C         36.59709        29.65914        -1.20386
C         37.84001        31.78417        -0.90958
C         36.57110        31.06467        -0.93954
C         37.89975        33.11527        -0.49718
C         36.68589        33.66550         0.19973
C         37.90378        35.88539         0.31672
C         36.71914        35.15876         0.40499
C         37.90817        37.31894         0.63240
C         36.74390        37.97895         0.99551
C         37.95628        40.18280         1.03003
C         36.74433        39.41357         1.45991
C         37.90648        41.61915         1.03059
C         36.64926        42.29440         1.03499
C         37.84311        44.47279         0.86628
C         36.62636        43.72862         0.95375
C         37.80774        45.88541         0.67887
C         36.56328        46.55677         0.60922
C         37.75826        48.60105        -0.23596
C         36.53394        48.05751         0.46631
C         37.68892        49.81039        -0.95903
C         36.41897        50.43360        -1.14883
C         40.21901        20.43052        -0.93046
C         39.05306        21.11074        -0.89956
C         40.25456        23.28635        -0.77046
C         38.99584        22.56046        -0.90572
C         40.25862        24.69474        -0.65253
C         38.97496        25.42971        -0.42051
C         40.26016        27.56912        -0.85855
C         39.00239        26.86323        -0.87754
C         40.29114        28.97242        -1.02308
C         39.05281        29.68221        -1.13706
C         40.30137        31.83280        -1.49731
C         39.04772        31.07749        -1.17761
C         40.28913        33.24692        -0.99865
C         39.13650        33.85445        -0.51953
C         40.34642        35.98284        -0.16267
C         39.12988        35.25451        -0.12093
C         40.35222        37.39064         0.18846
C         39.15467        38.05602         0.52696
C         40.37817        40.20809         0.64696
C         39.15480        39.48365         0.75398
C         40.41095        41.63584         1.14356
C         39.10814        42.37033         0.99175
C         40.31486        44.53862         0.83558
C         39.09682        43.78487         0.91334
C         40.29447        45.95189         0.62724
C         39.04288        46.61259         0.49023
C         40.21805        48.57274        -0.44927
C         39.00293        47.94661        -0.02968
C         40.14365        49.74461        -1.27716
C         38.88985        50.34613        -1.56556
C         39.98170        51.92780        -3.07991
C         38.84478        51.44689        -2.46918
C         42.68165        20.42562        -0.42978
C         41.53768        21.12550        -1.11150
C         42.68772        23.27623        -0.45149
C         41.48022        22.58806        -0.75280
C         42.69339        24.70618        -0.41421
C         41.47025        25.41657        -0.57800
C         42.70704        27.56369        -0.51265
C         41.47706        26.85508        -0.63074
C         42.74066        28.98459        -0.65992
C         41.53539        29.70533        -0.93441
C         42.80481        31.83542        -1.07575
C         41.56519        31.10432        -1.09031
C         42.81878        33.24336        -1.21251
C         41.52284        34.03611        -1.32573
C         42.77719        36.06633        -0.58409
C         41.55473        35.36176        -0.59307
C         42.79740        37.46438        -0.21737
C         41.58422        38.11906         0.11512
C         42.81239        40.26535         0.27451
C         41.57615        39.54150         0.34355
C         42.82055        41.76808         0.16481
C         41.56373        42.43705         0.63747
C         42.80597        44.55416         0.62869
C         41.55328        43.81432         0.70929
C         42.76636        45.97454         0.67104
C         41.52680        46.69555         0.47405
C         42.67526        48.71662        -0.53412
C         41.48192        48.01305        -0.08261
C         42.60166        49.71342        -1.56357
C         41.32804        50.26195        -1.89461
C         42.44834        51.83772        -3.40296
C         41.25143        51.34791        -2.80641
C         43.78224        21.10678        -0.02621
C         45.05447        23.26283         0.25996
C         43.86819        22.54789        -0.10767
C         45.08480        24.69549         0.18325
C         43.90248        25.42059        -0.16743
C         45.13625        27.56186        -0.03588
C         43.91144        26.84435        -0.23342
C         45.18864        28.97120        -0.26163
C         43.98304        29.69635        -0.60500
C         45.33512        31.74295        -1.00759
C         44.01978        31.08087        -0.87112
C         45.40732        33.23359        -1.35742
C         44.06276        34.02573        -1.61835
C         45.04038        36.32967        -1.31514
C         43.97430        35.46545        -1.09863
C         45.19993        37.60068        -0.72071
C         44.03053        38.20457        -0.22529
C         45.26096        40.37405         0.08072
C         44.02007        39.61383         0.08424
C         45.29733        41.70133         0.43029
C         44.02765        42.38680         0.85511
C         45.27192        44.58802         0.54416
C         44.04038        43.88478         0.64199
C         45.25683        46.00277         0.64152
C         44.01926        46.60017         0.88387
C         45.16918        48.74189        -0.69550
C         43.94586        48.48387        -0.00251
C         45.08082        49.67435        -1.77598
C         43.79243        50.23152        -2.14197
C         43.67363        51.29637        -3.08243
C         47.33424        23.30536         1.13369
C         46.21569        22.59474         0.72116
C         47.39141        24.70464         1.03620
C         46.27250        25.40859         0.52129
C         47.52029        27.55759         0.55059
C         46.30727        26.84728         0.34806
C         47.56978        28.93636         0.35501
C         46.42361        29.66348        -0.10145
C         47.79965        31.69001        -0.50456
C         46.53155        31.05169        -0.47519
C         47.86431        33.12808        -0.67429
C         46.69777        33.88430        -0.99033
C         47.85730        36.07785        -0.51341
C         46.89146        35.27463        -1.16141
C         47.79455        37.46655        -0.36753
C         46.54728        38.25421        -0.64801
C         47.71502        40.26717         0.53709
C         46.54267        39.68956        -0.22758
C         47.76524        41.76457         0.36221
C         46.54192        42.45815         0.41243
C         47.74673        44.61861         0.30641
C         46.52009        43.87595         0.42754
C         47.73870        46.02231         0.29827
C         46.50928        46.87057         0.62533
C         47.57912        48.61532        -0.92975
C         46.40916        48.10325        -0.33913
C         47.49155        49.57389        -1.97138
C         46.27867        50.05428        -2.42280
C         49.86714        24.71954         1.66863
C         48.57096        25.49651         1.58050
C         50.03466        27.49658         1.06845
C         48.77972        26.73310         0.70832
C         50.07539        28.91011         0.85099
C         48.79828        29.71503         0.75657
C         50.26446        31.35588        -0.34418
C         48.96472        30.93357        -0.11412
C         50.32213        33.38562        -0.51069
C         49.04621        33.89412        -0.37553
C         50.23463        36.03759         0.27854
C         48.91355        35.27508         0.25222
C         50.21061        37.41315         0.32685
C         48.98198        38.16301         0.10388
C         50.24155        40.29330         0.37808
C         49.00521        39.54862         0.29757
C         50.23350        41.72420         0.26112
C         48.99499        42.46174         0.27528
C         50.23790        44.57173         0.05658
C         48.99438        43.88388         0.21128
C         50.25787        45.99200        -0.06570
C         49.00506        46.73245         0.12255
C         50.15439        48.64736        -1.12910
C         48.92707        48.15381        -0.50354
C         51.06831        25.33068         1.51130
C         52.54514        27.42191         1.12311
C         51.18663        26.75524         1.30117
C         52.47801        28.89720         1.51800
C         51.29824        29.58179         0.88957
C         52.62245        31.67857         0.49188
C         51.41868        30.90536         0.38114
C         52.66925        33.11052         0.33874
C         51.50662        33.91584         0.10073
C         52.70216        35.96956         0.64553
C         51.48120        35.30420         0.39476
C         52.69211        37.40968         0.93715
C         51.36661        38.16720         0.95806
C         52.70439        40.28976         0.35291
C         51.46505        39.60297         0.48754
C         52.69794        41.69765         0.11103
C         51.46319        42.41884         0.12403
C         52.68818        44.54258        -0.23970
C         51.46073        43.84436        -0.02405
C         52.68773        45.95121        -0.45335
C         51.43920        46.67102        -0.42257
C         51.34475        48.01096        -0.95016
C         54.87103        27.49560         1.95604
C         53.73691        26.78309         1.80305
C         54.95840        28.90377         1.56669
C         53.78554        29.61108         1.26361
C         55.08496        31.66082         0.90852
C         53.82596        30.98543         0.90921
C         55.12507        33.09113         0.70086
C         53.90618        33.81246         0.55765
C         55.17998        35.95491         0.54618
C         53.92520        35.24992         0.59601
C         55.20460        37.37366         0.39193
C         54.00213        38.15749         0.70772
C         55.15759        40.24653         0.02958
C         53.95800        39.59328         0.37248
C         55.15822        41.67793        -0.18135
C         53.92949        42.39278        -0.10938
C         55.13538        44.50119        -0.54322
C         53.91732        43.81148        -0.29580
C         55.11405        45.91374        -0.72285
C         53.92912        46.61207        -0.68376
C         56.20319        29.57077         1.50646
C         56.25885        30.91786         1.19535
C         56.34908        33.81480         0.69043
C         56.37846        35.18683         0.56487
C         56.36122        38.09319         0.00495
C         56.35212        39.46798        -0.12305
C         56.35779        42.39880        -0.43724
C         56.35024        43.76612        -0.60744
O         33.92158        32.81311         1.47531
O         49.09722        47.95701         0.93718
O         44.01574        47.94342         1.28478
O         46.09192        35.87982        -2.12760
O         50.49805        32.29041        -1.36931
O         53.51098        37.81055         2.07889
O         29.75851        41.71134         3.26874
O         46.76266        39.35339        -1.62647
O         45.57518        32.23170        -2.40969
O         35.60612        36.26002         2.31827
O         46.68100        47.37903         1.97196
H         47.55208        47.84523         1.98906
O         43.84207        42.15062         2.28424
H         44.65859        42.43246         2.74850
O         31.49306        33.28763         2.23631
H         32.40517        33.19491         2.60021
O         41.83499        21.06292        -2.55985
H         42.69142        21.52127        -2.69695
O         48.38050        35.17110         1.53324
O         36.84501        39.32563         2.93551
H         37.69730        38.88855         3.14862
O         33.85004        43.70144        -0.66568
H         34.57562        43.20401        -1.09870
O         36.60767        48.59120         1.84832
H         36.59141        49.56963         1.77981
O         35.39849        28.93605        -3.11097
H         34.46782        28.80250        -3.42539
O         32.69081        29.16025        -3.11012
H         32.54935        30.11703        -3.27988
O         48.21170        25.94181         2.91341
H         48.12227        25.15385         3.48793
O         52.25395        28.92422         2.95754
H         51.96746        29.82737         3.20729
O         41.36323        34.40147        -2.76410
H         42.28236        34.52123        -3.12825
O         38.86315        25.50330         1.05933
H         38.05299        26.02022         1.26093
O         48.55188        30.18653         2.12955
H         47.80173        30.81770         2.09710
O         40.33723        31.90826        -2.97686
H         40.72419        32.79551        -3.20658
O         40.66568        41.52309         2.60543
H         41.64221        41.53795         2.73447
O         52.79718        27.37003        -0.31275
H         52.83321        26.42760        -0.57862
O         47.38884        40.02801         1.95437
H         48.22950        39.90165         2.44449
O         49.03723        26.20505        -0.63345
H         49.23742        26.96176        -1.22357
O         42.95768        42.06952        -1.25734
H         42.23633        41.61213        -1.73731
O         36.72383        33.06888         1.52700
H         35.86316        33.23254         1.97322
O         32.14217        42.42331         3.44495
H         31.29202        42.34488         3.94758
O         33.32039        44.64539         2.85972
H         33.14873        43.81322         3.36752
O         50.97782        38.27242         2.36784
H         51.81774        38.30564         2.88281
O         35.14280        24.37585         0.73070
H         35.93917        23.87033         1.00237
O         35.28146        33.86217        -1.79162
H         35.98164        33.49112        -2.36956
O         44.00924        34.15928        -3.07885
H         44.39219        33.32397        -3.44247
O         31.46102        43.24757        -0.06252
H         31.70268        44.00857        -0.63260
H         26.94642        27.14721        -1.83047
H         25.72091        29.24012        -1.28222
H         25.73802        31.59153        -0.59047
H         25.78355        33.42362        -0.12435
H         25.83984        35.74708         0.53787
H         25.85407        37.48366         1.12906
H         25.83824        39.86967         1.50477
H         25.80298        41.78018         1.46094
H         25.80913        44.20917         1.74054
H         27.03422        46.37479         1.75733
H         29.05877        25.88277        -1.99354
H         29.13723        47.60219         1.40796
H         32.73396        23.63176        -0.94647
H         30.63327        24.86590        -1.27272
H         32.66799        49.55428        -0.21540
H         30.63031        48.39596         0.43420
H         34.44463        22.71918        -1.68289
H         34.28757        50.29370        -1.03430
H         36.59050        21.56138        -1.76739
H         36.35232        51.38875        -1.68523
H         40.21868        19.33046        -0.89972
H         38.10894        20.55233        -0.81741
H         39.91692        52.77180        -3.78168
H         37.88158        51.91728        -2.70774
H         42.65643        19.32757        -0.36321
H         42.38491        52.67080        -4.11774
H         44.62769        20.54430         0.39439
H         44.57596        51.71373        -3.54970
H         48.19136        22.74265         1.52802
H         46.23482        21.49954         0.79197
H         48.40812        49.92623        -2.46175
H         46.26237        50.75331        -3.26901
H         49.84562        23.65492         1.94482
H         50.13075        49.57441        -1.71808
H         51.98776        24.73503         1.62072
H         52.24658        48.46913        -1.37873
H         55.77434        27.02326         2.37237
H         53.71511        25.71749         2.07702
H         56.06190        46.44337        -0.89633
H         53.95060        47.70207        -0.81647
H         57.12693        29.01995         1.73512
H         57.23739        31.41603         1.19245
H         57.30333        33.27630         0.76081
H         57.35085        35.69698         0.54040
H         57.29572        37.55198        -0.19767
H         57.28761        39.96612        -0.40844
H         57.31724        41.86753        -0.48915
H         57.29086        44.30349        -0.79558
