         244
 CSIRO Nanostructure Databank - Neutral Graphene Oxide Data Set
C          1.32217         2.08366        -1.05853
C          1.28923         3.43556        -1.03523
C          2.57229         1.36327        -0.94691
C          2.59011         4.20730        -0.96252
C          1.31133         6.38535        -0.66622
C          1.27895         7.75356        -0.43502
C          2.50064         5.65835        -0.52091
C          2.45342         8.46453        -0.11771
C          1.24595        10.64323        -0.19582
C          1.22898        12.02516        -0.17918
C          2.43828         9.91152         0.00817
C          2.40807        12.76196         0.07358
C          1.21843        14.96816        -0.28877
C          1.18666        16.32281        -0.43912
C          2.41155        14.22763         0.05899
C          2.33078        17.16248        -0.08377
C          2.47924        18.53547        -0.58611
C          3.71437         2.00573        -0.54900
C          3.59033         3.45035        -0.09456
C          4.98927         1.34224        -0.51308
C          4.90087         4.19252         0.01020
C          3.68077         6.33204        -0.12846
C          3.67378         7.74731         0.03334
C          4.91788         5.57858         0.09094
C          4.90232         8.46653         0.28910
C          3.63575        10.61860         0.30127
C          3.59233        12.03882         0.35596
C          4.89078         9.88717         0.43715
C          4.80378        12.78675         0.73432
C          3.61868        14.91554         0.19978
C          3.64448        16.38942         0.22453
C          4.86334        14.22095         0.40205
C          4.89328        17.07745        -0.08071
C          3.68611        19.15980        -0.59208
C          4.93074        18.45363        -0.34395
C          6.14315         1.98100        -0.13720
C          6.09666         3.39483         0.30924
C          7.43791         1.35827        -0.31442
C          7.39148         4.12394         0.54788
C          6.14830         6.29721         0.33948
C          6.13396         7.75308         0.39721
C          7.37106         5.59868         0.43411
C          7.34312         8.46391         0.57549
C          6.11832        10.57558         0.62059
C          6.11999        12.03273         0.86667
C          7.35483         9.88141         0.62663
C          7.36862        12.78884         0.71572
C          6.08769        14.86913         0.29247
C          6.10348        16.26613        -0.19394
C          7.34369        14.18441         0.49804
C          7.42754        17.00959        -0.28826
C          6.18159        19.14239        -0.41931
C          7.40523        18.48440        -0.26190
C          8.62231         1.99338        -0.11733
C          8.72769         3.37907         0.49520
C          9.89344         1.32874        -0.60452
C          9.82533         4.18992        -0.22081
C          8.61411         6.28906         0.48356
C          8.60248         7.72164         0.94148
C          9.83321         5.62862         0.27668
C          9.87527         8.47199         0.66566
C          8.61983        10.60418         0.66765
C          8.61465        12.05628         0.68588
C          9.84895         9.90018         0.64655
C          9.80828        12.76779         0.66993
C          8.57566        14.93095         0.45728
C          8.63884        16.29791         0.15572
C          9.80576        14.24442         0.97407
C          9.85434        17.03938         0.21944
C          8.64302        19.16033        -0.11420
C          9.85420        18.46468         0.06609
C         11.16664         2.01701        -0.17386
C         11.14687         3.46631        -0.03323
C         12.35327         1.33245        -0.14842
C         12.30667         4.15285         0.16789
C         11.04578         6.34877         0.38147
C         11.07651         7.75715         0.55660
C         12.29049         5.62758         0.04878
C         12.39194         8.47184         0.79732
C         11.11333        10.60594         0.51018
C         11.06771        12.07143         0.39815
C         12.33557         9.95332         0.50574
C         12.37364        12.82028         0.53370
C         11.08371        14.96897         0.64064
C         11.09591        16.33032         0.41494
C         12.36568        14.26248         1.01060
C         12.35767        17.08584         0.41851
C         11.10317        19.18016         0.12820
C         12.31713        18.53963         0.29449
C         13.60894         1.97601         0.18064
C         13.56745         3.43605         0.60684
C         14.79935         1.31896         0.25464
C         14.85496         4.15126         0.23423
C         13.56886         6.37891        -0.10783
C         13.63314         7.81652         0.23691
C         14.84266         5.59068        -0.14550
C         14.83320         8.52033         0.23519
C         13.59867        10.67342         0.50839
C         13.61487        12.05275         0.66655
C         14.86042         9.95659         0.42408
C         14.88858        12.77517         0.85276
C         13.58147        14.93973         0.37481
C         13.55520        16.43412         0.52834
C         14.88291        14.29680         0.80846
C         14.85422        17.15450         0.75745
C         13.57704        19.24607         0.23215
C         14.78892        18.60344         0.33510
C         16.00029         2.02965         0.85522
C         16.01905         3.48438         0.42970
C         17.32842         1.35113         0.59206
C         17.31716         4.19439         0.52517
C         16.10527         6.37140        -0.06306
C         16.10373         7.84136         0.07890
C         17.34321         5.67389         0.36326
C         17.31898         8.50298         0.12890
C         16.08351        10.65293         0.34983
C         16.13225        12.07885         0.50049
C         17.34196         9.95115         0.17259
C         17.30086        12.81136         0.23591
C         16.10624        14.98224         0.35976
C         16.07411        16.41464         0.23635
C         17.26412        14.24531         0.12551
C         17.23851        17.13650        -0.02488
C         16.05317        19.28196         0.21354
C         17.23095        18.58515         0.09926
C         18.49751         2.00505         0.31549
C         18.56273         3.46325         0.24201
C         19.77716         1.30215         0.20105
C         19.72048         4.14362        -0.05788
C         18.60247         6.35647         0.05563
C         18.58872         7.77535         0.02198
C         19.78477         5.60165        -0.06930
C         19.80878         8.45209        -0.07546
C         18.53558        10.64688         0.02524
C         18.54657        12.09286        -0.04909
C         19.86089         9.93590         0.19905
C         19.70556        12.77482        -0.36510
C         18.41819        14.94143        -0.55946
C         18.47331        16.44262        -0.34319
C         19.75223        14.27997        -0.20407
C         19.65748        17.12304        -0.56311
C         18.55909        19.29760         0.16176
C         19.60751        18.63371        -0.74259
C         20.91907         1.94531        -0.11703
C         20.92398         3.38601        -0.56843
C         22.20622         4.13136        -0.30225
C         21.02287         6.28054        -0.21618
C         21.03148         7.71996        -0.24188
C         22.23554         5.48252        -0.21777
C         22.20290         8.46408        -0.53043
C         21.03169        10.60999        -0.46001
C         20.96334        12.06955        -0.84398
C         22.15502         9.86264        -0.73731
C         22.18279        12.86944        -0.41656
C         20.93536        14.92844        -0.95326
C         20.92656        16.43869        -0.75238
C         22.18320        14.20731        -0.49265
C         22.08570        17.16496        -0.84208
C         20.94846        19.30307        -0.60522
C         22.09799        18.60098        -0.69743
O         14.95261        13.61508         2.07394
O         13.52480         3.47931         2.03618
O         15.61847         5.88057        -1.36739
O          5.33322        12.43041         2.05440
O          6.59478         3.63924         1.69251
O          2.82570        16.98068         1.27866
O         11.75795        12.64635        -0.79390
O         17.35022         5.08808         1.71160
O         12.74129         6.08867        -1.30821
O          6.80792        16.42394        -1.48230
O          9.84613         1.36421        -2.05157
H          9.72987         2.31150        -2.30143
O         20.13928        10.03980         1.65530
H         19.45480         9.51279         2.12170
O         12.47381        14.30832         2.44613
H         11.56468        14.17658         2.81408
O         20.92566        12.04768        -2.30290
H         20.95884        12.99764        -2.60023
O          3.05605         3.43553         1.25901
H          3.73156         3.03543         1.84637
O         12.58228         8.37630         2.26220
H         11.72712         8.59540         2.69183
O         19.14898        18.86913        -2.11081
H         19.83244        18.51323        -2.71688
O         15.78067         2.01676         2.29567
H         14.93490         2.54401         2.44286
O          8.55792         7.63315         2.42754
H          7.81063         7.04042         2.66175
O          9.48951         4.21086        -1.63839
H         10.17434         4.74357        -2.09766
O         18.18400        14.74873        -1.99749
H         17.31452        15.14894        -2.21386
O         20.80452        14.72148        -2.38784
H         19.85662        14.89219        -2.62071
O          3.15062         4.23929        -2.30792
H          2.49740         4.66854        -2.89846
O         20.80091         3.34759        -2.03722
H         19.97608         2.85969        -2.24645
O         15.04134        17.17114         2.22004
H         14.21116        17.50318         2.62303
O         19.01294        19.28824         1.52412
H         18.99295        18.36420         1.84926
O          9.18407         3.22046         1.85518
H          8.39626         2.99043         2.39735
O          9.71448        14.30618         2.48187
H          9.38835        15.20268         2.71514
O         13.54285        14.69571        -1.06360
H         12.60507        14.62379        -1.34776
O         20.00034        14.54738         1.20174
H         19.31747        14.07927         1.72774
H          0.39582         1.50744        -1.20004
H          0.33371         3.95951        -1.18180
H          2.59546         0.29252        -1.19812
H          0.38208         5.88029        -0.96186
H          0.31955         8.27453        -0.54225
H          0.30262        10.12003        -0.39594
H          0.27687        12.53802        -0.36465
H          0.30909        14.40702        -0.54283
H          0.29507        16.80493        -0.86743
H          1.58188        19.05851        -0.94948
H          5.04214         0.30282        -0.87328
H          3.75506        20.20714        -0.92209
H          7.44461         0.34050        -0.73650
H          6.17021        20.23886        -0.51174
H          9.91164         0.24967        -0.30741
H          8.65821        20.25978        -0.15701
H         12.36178         0.25173        -0.36251
H         11.08128        20.27302         0.00027
H         14.85642         0.23607         0.05805
H         13.55314        20.32744         0.02438
H         17.35661         0.25488         0.70497
H         16.06735        20.38308         0.20156
H         19.79421         0.22734         0.43885
H         18.44206        20.36800        -0.13860
H         21.86679         1.38792        -0.17486
H         23.14636         3.55931        -0.27754
H         23.20307         5.99328        -0.10109
H         23.15058         7.94021        -0.71769
H         23.04268        10.35585        -1.16038
H         23.07883        12.33194        -0.06999
H         23.07348        14.77741        -0.18774
H         23.04765        16.65597        -0.99318
H         20.96477        20.39783        -0.50062
H         23.07057        19.11244        -0.65577
