         280
 CSIRO Nanostructure Databank - Neutral Graphene Oxide Data Set
C        -11.32862         0.77679        -0.34643
C        -10.19777         1.61812         0.22159
C         -8.81249         0.93596         0.09510
C         -7.59012         1.53928         0.75787
C         -6.37170         0.66094         1.00585
C         -5.06442         1.32351         1.56680
C         -3.77191         0.66771         0.99157
C         -2.76229         1.52196         0.22248
C         -1.45392         0.74681        -0.02569
C         -0.12570         1.48737        -0.21167
C          1.19231         0.76854        -0.26969
C          2.53928         1.44102        -0.60146
C          3.74152         1.01766         0.25718
C          5.03551         1.82984         0.06505
C          6.29707         0.99385         0.03177
C          7.45142         1.55734        -0.38838
C          8.75966         0.89282        -0.14897
C          9.90985         1.28988        -1.05429
C         11.22094         0.82741        -0.45881
C        -10.12549         2.98759        -0.47515
C         -9.20833         3.90964        -0.21920
C         -7.57354         2.81294         1.61298
C         -6.28658         3.64383         1.60624
C         -4.99396         2.87238         1.55298
C         -3.72819         3.59802         1.19440
C         -2.61679         2.95423         0.72867
C         -1.42424         3.70291         0.21101
C         -0.17910         2.97239        -0.19059
C          1.13189         3.69793        -0.42281
C          2.38207         2.95283        -0.81308
C          3.68442         3.70588        -1.20389
C          4.98560         2.89087        -1.02984
C          6.26657         3.61264        -1.32155
C          7.57319         2.91038        -1.03395
C          8.79775         3.69538        -0.64225
C          9.64724         2.75469        -1.49820
C         -8.54350         4.99255         0.14755
C         -7.07746         5.36468        -0.06656
C         -6.38693         5.16956         1.34727
C         -5.00919         5.84583         1.55945
C         -3.70662         5.06906         1.47223
C         -2.41896         5.83560         1.22923
C         -1.33033         5.22708         0.35561
C          0.07198         5.80003         0.66255
C          1.33741         4.93924         0.43860
C          2.65802         5.71320         0.14990
C          3.81116         5.08293        -0.57679
C          4.92095         5.93551        -1.21566
C          6.26933         5.14100        -1.35895
C          7.54078         5.83063        -0.91531
C          8.79471         5.05047        -0.68120
C         -6.98977         6.77649        -0.62529
C         -5.86779         7.33026        -1.17079
C         -4.91746         7.32333         1.39774
C         -3.75175         7.98212         1.14341
C         -2.42066         7.33782         1.11374
C         -1.17100         8.08549         0.62398
C          0.12958         7.29590         0.67123
C          1.33164         7.83707        -0.16640
C          2.64600         7.22019         0.37885
C          3.87203         7.93173        -0.14430
C          5.03193         7.27227        -0.50192
C          6.30231         7.96211        -0.42813
C          7.48362         7.24966        -0.50629
C         -5.82519         8.74863        -1.59415
C         -4.85791         9.67132        -1.39950
C         -3.63704         9.54146        -0.57047
C         -2.36842         9.68528        -1.01378
C         -1.16413         9.34937        -0.20615
C          0.15892         9.96931        -0.52778
C          1.35216         9.35049        -0.24499
C          2.61070        10.03890        -0.16032
C          3.83446         9.37596        -0.06323
C          5.10135        10.06916        -0.04674
C          6.27787         9.38492        -0.14959
C        -11.27261        -0.51374        -0.69671
C         -9.97732        -1.26160        -0.89323
C         -8.84183        -0.59801        -0.01822
C         -7.49871        -1.12470        -0.57185
C         -6.37367        -0.70976         0.38711
C         -5.06315        -1.34200        -0.02659
C         -3.81738        -0.77059         0.59746
C         -2.64405        -1.61868         0.12980
C         -1.39660        -0.75248         0.07741
C         -0.11212        -1.37763         0.50941
C          1.18251        -0.57155         0.40445
C          2.45855        -1.20014         0.84947
C          3.76025        -0.42223         0.70453
C          5.02953        -1.21143         0.64350
C          6.29823        -0.45741         0.40428
C          7.57179        -1.11704         0.97275
C          8.84335        -0.38189         0.59984
C         10.15786        -1.13765         0.77240
C         11.31770        -0.33488         0.21031
C         -9.96661        -2.72850        -0.44753
C         -8.80010        -3.40560        -0.40304
C         -7.53795        -2.71977        -0.95352
C         -6.27806        -3.51702        -0.51375
C         -5.05152        -2.87138         0.01244
C         -4.10705        -3.55132         1.02952
C         -2.69914        -2.90193         0.96732
C         -1.40794        -3.64203         1.07701
C         -0.11232        -2.84189         0.86989
C          1.20697        -3.53199         0.67269
C          2.48304        -2.71994         0.81156
C          3.75426        -3.40406         1.24642
C          5.06079        -2.62627         1.20203
C          6.38034        -3.35913         1.16055
C          7.52823        -2.59402         0.46183
C          8.87997        -3.29787         0.45544
C         10.03855        -2.60185         0.38169
C         -8.60170        -4.82789         0.08632
C         -7.63672        -5.63549        -0.76010
C         -6.51984        -4.92582        -0.05817
C         -5.23830        -5.71547         0.17982
C         -4.03888        -5.09524         0.86275
C         -2.69284        -5.85721         0.93749
C         -1.37333        -5.13541         1.19598
C         -0.04680        -5.84431         1.13691
C          1.17992        -5.07158         0.59956
C          2.48324        -5.69970         1.06769
C          3.76529        -4.91020         1.28340
C          5.07958        -5.66087         1.16966
C          6.41139        -4.86627         1.09661
C          7.56483        -5.53239         0.46083
C          8.83475        -4.77459         0.07973
C         -7.52423        -6.88070        -1.25488
C         -6.14143        -7.32135        -1.71889
C         -4.99131        -6.84709        -0.78827
C         -3.73794        -7.64971        -0.60766
C         -2.59699        -7.21763         0.29872
C         -1.20172        -7.65096        -0.19583
C         -0.06519        -7.40075         0.88521
C          1.29447        -8.01320         0.43311
C          2.52154        -7.13987         0.70465
C          3.82142        -7.66249         0.19882
C          5.07894        -6.99874         0.55949
C          6.27420        -7.63642         0.24556
C          7.50606        -6.87946         0.20969
C         -6.01037        -8.79138        -2.05311
C         -4.90864        -9.53167        -1.87539
C         -3.74085        -9.17164        -0.98151
C         -2.37369        -9.36335        -1.56263
C         -1.20340        -9.18511        -0.66367
C          0.16646        -9.54869        -1.21598
C          1.29303        -8.96849        -0.73637
C          2.43151        -9.74546        -0.08621
C          3.80432        -9.10205        -0.25109
C          5.10932        -9.77869        -0.22476
C          6.25427        -9.05123        -0.09350
O          3.67536         0.69281         1.66286
O         -2.81119        -7.09777         1.71209
O         -0.90317        -6.85318        -1.33116
H         -1.71332        -6.72564        -1.87250
O          1.10077        -5.38601        -0.81401
H          1.64598        -4.73471        -1.31359
O         -2.05788         6.63652         2.36868
O         -3.87518         9.36378         0.81906
O          5.95814        -5.51841         2.31579
O          5.60695         2.74501        -2.32412
O         -3.43680        -0.38636         1.95162
O         -1.18092         3.36920        -1.20481
O         -0.61649        -5.51248         2.41093
O          9.97344        -5.45623         0.61073
H          9.88121        -5.50710         1.58422
O          1.10851         7.31031        -1.42957
O         -6.66485        -0.56089         1.78046
O          0.30751         6.56029         1.89323
O          1.96843        -3.08596        -0.51520
O         -7.48120        -4.76553         1.09069
O          3.78925         5.10605         0.87213
O         -1.52510        -0.10872        -1.21458
O         -4.74752         6.59103        -1.40941
H         -4.99225         5.63737        -1.31764
O          7.25942        -2.60504        -0.91336
O          2.42933        -6.72196         2.10191
O         -5.97413        -6.64300        -2.98914
H         -5.01137        -6.59655        -3.18214
O         -5.08360         1.03162         2.96803
H         -5.24154         0.06705         3.07625
O         -3.79436        -6.66375        -1.67475
O         -2.76652        -2.19343        -1.18326
H         -2.73739        -1.45348        -1.83494
O          8.98779         0.90606         1.31021
O         -7.83972         1.69391        -0.67338
O         -5.56610         3.35771         2.81958
O          7.13953         5.69738        -2.36693
O         -0.14247        -1.82676         1.89276
O         -7.26340        -0.45056        -1.79430
H         -7.25218        -1.15777        -2.50271
O         -5.01349        -5.88922         1.59581
O          4.52286         6.34904        -2.53267
H          4.26829         5.54576        -3.04661
O         -4.89094        -0.92717        -1.40083
H         -5.05448        -1.72475        -1.96622
O         -7.61658        -2.81477        -2.34177
O         -5.07856        -3.43354        -1.33371
O          2.68918         7.44673         1.80275
H          3.33195         6.80700         2.18062
O          1.65867        -0.47052         1.79557
O         -3.40296         1.67548        -1.06860
H         -2.75437         2.11865        -1.66403
O          2.92644         0.89154        -1.88673
H          2.15218         1.00624        -2.48634
O          5.63718        -1.17799        -0.69468
O          1.80561        -9.26688         1.19229
O          1.51936         4.28387         1.72661
H          1.50604         4.98932         2.41430
O         -3.96567        -9.87108         0.23909
H         -3.08980       -10.07761         0.65604
O         -1.35639       -10.00140         0.51425
H         -0.79403        -9.63482         1.24357
O         10.41839        -1.19767         2.20639
H          9.58221        -1.47006         2.64891
O         -4.30381         5.41510         2.76075
O          3.56837         3.94649        -2.61872
H          3.63723         3.08604        -3.08524
O         -7.26346         5.70437         2.33871
H         -6.86045         5.52713         3.21576
O         -9.06672        -1.06469         1.31901
H         -9.61664        -0.40782         1.80008
O         -1.65844         5.78275        -0.94812
H         -1.20176         5.24455        -1.63788
O          5.16022         2.66903         1.24737
H          4.82993         2.15446         2.02070
O          1.42658         3.47111        -1.81182
O          0.43441         0.96388        -1.47804
O         -8.42035         3.05352         2.45643
O         -4.65500        -3.23174         2.30597
H         -3.94355        -3.32710         2.97872
O         -2.08423        -3.02447         2.24907
O          8.38642         2.60308        -2.30033
O         -6.06962         8.04444         1.53988
H         -5.82820         8.98912         1.41224
O         -6.39148         4.43344        -0.93201
H         -7.02368         4.08860        -1.59897
O          3.60929        -4.12064         2.50116
O          5.86388        -2.81171         2.39436
O          9.78918         0.50097        -2.26517
H          9.03707         0.87708        -2.78143
O          7.53503        -1.06670         2.40706
H          7.84618        -0.16935         2.66835
O        -10.55142         1.71750         1.61224
H         -9.94441         2.35526         2.06918
O         -9.70659        -1.17772        -2.29118
H         -9.04476        -1.88874        -2.53622
O         -0.41304        -8.05159         2.09541
H         -0.82487        -7.38483         2.70000
O          3.73076        -8.00616        -1.23039
O         -1.19371         9.39258         1.27115
H         12.31376        -0.67504         0.53525
H         12.13841         1.36506        -0.74604
H         10.47178         3.21306        -2.09139
H          9.74432         5.60744        -0.73791
H          8.44045         7.76690        -0.33411
H          7.23723         9.91990        -0.09389
H          5.10419        11.16243         0.07392
H          2.60535        11.14012        -0.19955
H          0.14201        11.05362        -0.73058
H         -2.19261         9.86473        -2.08396
H         -5.01045        10.65958        -1.86920
H         -6.71794         9.08077        -2.15146
H         -7.85394         7.43029        -0.44756
H         -9.06647         5.68916         0.83133
H        -10.75090         3.10693        -1.37878
H        -12.31278         1.27117        -0.31079
H        -12.19664        -1.02046        -1.01926
H        -10.90470        -3.19601        -0.10600
H         -9.52113        -5.31071         0.48813
H         -8.39733        -7.48338        -1.54538
H         -6.83315        -9.20885        -2.65489
H         -4.89692       -10.56612        -2.25264
H         -2.24144        -9.05497        -2.61336
H          0.24388       -10.51613        -1.73722
H          2.42010       -10.85602        -0.16764
H          5.15148       -10.87237        -0.33502
H          7.22511        -9.56553        -0.15333
H          8.40187        -7.38157        -0.18625
H          8.93008        -4.82618        -1.03928
H         10.97813        -3.16700         0.26767
