         260
 CSIRO Nanostructure Databank - Neutral Graphene Oxide Data Set
C         30.47819        31.85735        -1.08967
C         30.32901        32.84215        -0.33681
C         30.17334        36.09494         0.26236
C         30.18768        37.26067         0.70159
C         30.37892        40.35175         1.35470
C         30.35342        41.51010         0.94191
C         33.22401        29.61805        -2.56284
C         32.09295        30.11911        -2.40499
C         32.65017        31.22082        -0.48158
C         31.61277        31.03344        -1.38757
C         32.48364        33.14067         0.55299
C         31.26956        33.78527         0.22087
C         32.53588        35.87422         0.46850
C         31.28435        35.18562         0.30255
C         32.58004        37.34113         0.52125
C         31.34741        38.07236         0.91396
C         32.87884        40.36922         0.26107
C         31.38600        39.32894         1.46010
C         32.63213        41.81908        -0.04713
C         31.27056        42.44957         0.30738
C         32.55238        44.39935         0.79086
C         31.44477        43.84334         0.75272
C         36.19881        28.09695        -2.32273
C         35.66439        29.14685        -1.67027
C         34.21945        29.46801        -1.39810
C         35.17103        31.66804        -0.13572
C         34.06574        30.86504        -0.76387
C         34.95728        32.88965         0.81399
C         33.73862        33.76530         0.53821
C         35.05738        35.98272         0.45737
C         33.76333        35.17190         0.44194
C         34.95786        37.28070        -0.40172
C         33.66494        38.02230        -0.00638
C         35.38413        40.45190        -1.00983
C         33.37650        39.37658        -0.53471
C         35.23907        41.84105        -0.32162
C         33.95188        42.60729         0.03158
C         34.83192        45.05147        -0.02626
C         33.85865        44.12509         0.30469
C         35.37163        46.18381         0.66235
C         38.26141        27.66233        -1.28832
C         37.30084        27.41263        -2.22727
C         38.09662        29.04308        -0.69166
C         36.69207        29.62454        -0.63441
C         37.55665        31.55388         0.94467
C         36.43315        30.87982         0.16066
C         37.52483        33.06748         1.05042
C         36.23315        33.77250         0.83840
C         37.56412        35.86238         0.06117
C         36.24239        35.08366         0.03373
C         37.56667        37.26607        -0.17812
C         36.30189        38.07647        -0.26931
C         37.70127        40.14191        -0.39731
C         36.37468        39.44591        -0.37893
C         37.79173        41.64611        -0.39919
C         36.57998        42.50707        -0.37090
C         37.88022        44.54466         0.24408
C         36.74542        43.85602        -0.43047
C         37.90670        46.02287         0.45020
C         36.61755        46.49143         0.53016
C         41.09308        25.24799        -1.81677
C         40.03405        25.88328        -1.93775
C         40.59817        27.49727        -0.17673
C         39.48018        26.88859        -1.01665
C         40.35042        28.75585         0.69275
C         39.15190        29.60387         0.21013
C         40.10246        31.64305         1.27319
C         38.88351        30.85290         1.03103
C         40.08111        33.10180         1.16845
C         38.80909        33.83723         0.88636
C         40.03680        35.77844        -0.12448
C         38.79508        35.17238         0.20928
C         40.05788        37.15316        -0.45619
C         38.84353        37.88335        -0.34590
C         40.25586        40.04842        -0.13445
C         38.93806        39.34913        -0.13711
C         40.34689        41.54857        -0.11643
C         39.10988        42.35778        -0.16471
C         40.39238        44.41068         0.76641
C         39.10504        43.71953         0.46966
C         40.41037        45.75731         0.95466
C         39.25280        46.69664         0.45359
C         40.43902        48.39764         1.84401
C         39.43174        47.91030         1.32285
C         43.51805        25.12362        -0.74907
C         42.33864        25.80391        -1.28350
C         43.09007        27.59466         0.53742
C         42.04331        27.06757        -0.39973
C         42.95741        29.02370         0.94829
C         41.59223        29.64469         0.87960
C         42.62621        31.78217         1.83379
C         41.33987        30.90400         1.70791
C         42.62224        33.20490         1.29330
C         41.35223        33.66017         0.62098
C         42.60823        35.60137        -0.46705
C         41.29929        34.96944        -0.07929
C         42.56133        36.96377        -1.08219
C         41.33129        37.84787        -0.91577
C         42.72532        40.19944        -0.64823
C         41.46170        39.36622        -0.71940
C         42.82746        41.47301        -0.03153
C         41.59791        42.11859         0.48158
C         42.92715        44.26670         0.72427
C         41.62925        43.57205         0.87398
C         42.97698        45.69831         1.12454
C         41.69522        46.43551         1.34328
C         43.03125        48.18862         2.33557
C         41.62616        47.64814         2.36462
C         44.34212        25.70626        -0.02200
C         45.51876        27.64505         1.15026
C         44.27703        26.92539         0.74154
C         45.30096        29.04305         1.73487
C         44.10368        29.68608         1.66636
C         45.26640        32.05873         2.24365
C         43.97738        31.13759         2.05526
C         45.23858        33.36797         1.41434
C         43.90467        33.92245         0.96248
C         45.09915        35.75326        -0.27313
C         43.92112        35.08326         0.01675
C         45.09389        37.05230        -0.93715
C         43.88802        37.54759        -1.34195
C         45.17614        40.25862        -0.96763
C         43.90944        39.73000        -1.22508
C         45.22536        41.60961        -0.58855
C         44.03391        42.22923        -0.13865
C         45.25908        44.46460        -0.04624
C         44.04344        43.64217         0.22676
C         45.40199        45.79976         0.73334
C         44.34169        46.12010         1.76943
C         44.05818        47.53789         2.14607
C         47.52589        27.57615         2.46223
C         46.49444        26.97857         2.12742
C         47.86063        28.95593         2.07224
C         46.54980        29.74258         2.16768
C         47.88074        31.95438         1.85476
C         46.58197        31.24528         2.18432
C         47.84515        33.33837         1.23270
C         46.51503        34.02293         0.95977
C         47.68198        35.73643        -0.63073
C         46.43219        35.09233        -0.09896
C         47.62622        37.10984        -1.34897
C         46.36419        37.89797        -0.95942
C         47.68296        40.18549        -1.24762
C         46.41111        39.42314        -1.01940
C         47.72653        41.55458        -1.12163
C         46.40683        42.36044        -1.16647
C         47.81538        44.50258        -0.71599
C         46.45510        43.82881        -0.73319
C         47.78281        45.65653         0.19104
C         46.82610        46.13120         0.80751
C         50.47578        29.18562         2.49514
C         49.15115        29.70461         2.10819
C         50.33791        31.82193         1.47880
C         49.15948        31.18329         1.83253
C         50.13180        32.82914         0.27556
C         49.09152        33.92181         0.58103
C         50.21478        35.65099        -1.05255
C         49.03468        35.20464        -0.18717
C         50.21445        37.17849        -1.17992
C         48.91370        37.93089        -1.16063
C         50.20995        40.12779        -1.43803
C         48.89891        39.37981        -1.69695
C         50.20982        41.61619        -1.56412
C         48.99573        42.30290        -1.26027
C         50.26906        44.26290        -1.31801
C         49.01339        43.71722        -1.05546
C         51.45276        29.97337         2.37059
C         52.83357        31.89200         1.33596
C         51.64670        31.22194         1.73821
C         52.62440        32.90523         0.55591
C         51.85852        33.63911        -0.35981
C         52.64011        35.95850        -1.05573
C         51.73776        35.13241        -0.23213
C         52.64155        37.08989        -1.54694
C         51.39737        37.84918        -1.94053
C         52.55529        40.19403        -2.15758
C         51.48923        39.32483        -1.63493
C         52.55180        41.43168        -2.03177
C         51.44963        42.31480        -1.79799
C         51.35875        43.70692        -1.63677
O         42.55356        27.12715        -1.77926
O         46.98306        34.70133        -1.40672
O         37.91550        30.80576         2.14147
O         39.46778        33.92338         2.22304
O         41.13238        38.78145        -2.01504
O         38.13257        43.82475         1.54809
O         36.12240        29.55821         0.70399
O         42.47857        29.83519        -0.22656
O         45.88324        34.45149         2.18167
O         35.22448        40.37402        -2.21720
O         49.84539        32.15022        -0.77252
O         36.80055        33.72877         2.16872
O         43.86103        38.67976        -2.13491
O         37.84908        40.89500        -1.65713
O         48.61138        29.06938         0.87287
O         34.83217        31.87454        -1.52495
O         42.49715        46.68692         0.14843
O         46.92323        44.68186        -1.84251
O         46.51964        38.65143         0.27153
O         51.05002        39.70107        -0.32051
O         32.41636        31.75141         0.79025
O         32.66184        39.97038         1.62015
O         42.47736        35.77623        -1.93593
O         49.68177        37.75965         0.04757
O         35.72605        44.58809        -1.02387
O         41.57160        42.49750         1.88556
O         34.75096        41.88479         1.05067
O         44.93322        45.78222        -0.61099
O         41.26763        33.67020        -0.82322
O         43.11710        31.52979         3.16807
O         39.72292        26.43892         0.35461
O         31.63471        42.17458        -1.06393
O         33.21008        39.42540        -1.96175
O         43.11037        34.23142         2.19513
O         46.59785        30.46004         3.42412
O         48.06304        33.17005         2.65484
O         49.35555        35.20117         1.22442
O         39.68863        39.57846         1.12704
O         39.13983        29.95379        -1.20643
O         39.98570        42.26152        -1.33581
O         41.01117        30.41831         3.02546
H         40.81341        31.18120         3.60845
O         35.30742        36.44299         1.79866
H         35.49819        35.67148         2.37446
O         51.92679        33.19074        -1.66954
H         51.23132        32.47537        -1.75706
O         34.75962        32.31549         2.11000
H         35.50803        32.59284         2.69336
O         40.03222        28.29503         2.00906
H         39.48875        27.47733         1.92988
O         48.80247        39.30515        -3.14215
H         48.23392        38.53753        -3.38909
O         41.35861        47.12678         3.63947
H         41.15390        47.85782         4.25795
O         46.25066        27.83827        -0.05544
H         46.31234        26.98432        -0.53555
O         39.58479        47.01241        -0.89270
H         40.49932        47.37068        -0.91962
O         34.82900        36.92827        -1.79587
H         34.52979        37.72575        -2.29218
O         33.71546        28.49958        -0.50038
H         33.85704        27.60300        -0.86732
O         44.61621        45.34204         2.92168
H         44.02915        45.61951         3.65545
O         51.78980        35.50844         1.10053
H         51.69014        36.47904         1.18710
O         50.13991        35.03803        -2.30870
H         50.76578        35.48033        -2.92323
O         45.24779        32.49758         3.60209
H         44.55639        33.18672         3.70224
O         36.07310        34.62207        -1.31903
H         35.74043        35.37019        -1.87392
O         47.54014        36.85959        -2.76931
H         47.19758        35.94205        -2.89543
O         51.13238        37.63923        -3.32624
H         51.83160        38.08332        -3.85124
O         46.08038        42.37779        -2.58615
H         46.41028        43.23365        -2.95195
O         31.77058        39.47297        -2.18209
H         31.57049        40.44709        -2.17525
