         324
 CSIRO Nanostructure Databank - Neutral Graphene Oxide Data Set
C          1.79139         3.97042        -2.99430
C          0.82815         4.79814        -3.55497
C          1.71572         6.71530        -2.32636
C          0.80260         6.16269        -3.25121
C          1.61084         8.10110        -1.87722
C          0.63407         8.99357        -2.38101
C          1.22055        10.71613        -0.76363
C          0.49675        10.29478        -1.90460
C          1.20174        12.08757        -0.24572
C          0.03786        12.86039        -0.43805
C          1.15232        14.88106         0.35114
C          0.00274        14.20766        -0.13081
C          1.15853        16.34060         0.45775
C         -0.04433        17.10072         0.18240
C          1.17478        19.22646         0.11454
C         -0.06975        18.45750         0.12328
C          1.20835        20.70809         0.23434
C          0.04231        21.47498         0.20478
C          1.25917        23.58160        -0.05499
C          0.07103        22.88328         0.14947
C          1.29382        25.01069        -0.29234
C          0.16260        25.74850        -0.62704
C          1.36195        27.88060        -0.88385
C          0.19459        27.13430        -0.93811
C          1.46278        29.24395        -1.34195
C          3.89402         3.70612        -1.75904
C          2.76883         4.50080        -2.11020
C          3.64259         6.41253        -0.74634
C          2.68027         5.87455        -1.72325
C          3.66535         7.84796        -0.42568
C          2.46554         8.56029        -0.83393
C          3.71580        10.67002         0.69515
C          2.07056         9.75429        -0.19712
C          3.62193        12.03587         0.50781
C          2.35918        12.72492         0.30907
C          3.51463        14.77849         1.18551
C          2.33369        14.12913         0.55636
C          3.44598        16.29526         1.42890
C          2.31687        17.02087         0.81865
C          3.55147        19.26555         1.08380
C          2.43366        18.45643         0.50172
C          3.66601        20.70104         0.67578
C          2.47790        21.36280         0.27044
C          3.86201        23.52592         0.07044
C          2.50970        22.79084        -0.08843
C          3.76008        24.96525         0.33485
C          2.60720        25.70409        -0.27037
C          3.76742        28.09914        -0.21117
C          2.62232        27.20385        -0.51836
C          3.88046        29.32792        -0.89515
C          2.66660        29.89201        -1.45190
C          6.26814         3.58883        -1.19535
C          5.05876         4.27294        -1.19404
C          6.14206         6.38378        -0.23104
C          4.94880         5.60624        -0.54718
C          6.09774         7.72585         0.14782
C          4.82504         8.45139         0.13076
C          6.11615        10.53540         0.61061
C          4.89370         9.86380         0.46559
C          6.06637        11.97701         0.94668
C          4.91680        12.80300         0.39909
C          6.04775        14.84074         1.29775
C          4.85716        14.16848         1.05244
C          6.04811        16.27408         1.70260
C          4.73213        17.01774         1.72437
C          6.04385        19.21861         1.77436
C          4.72208        18.51881         1.64998
C          6.04980        20.72093         1.50448
C          4.86513        21.40900         0.94444
C          6.09748        23.55950         1.17091
C          4.98506        22.81596         0.71144
C          6.12480        25.01078         1.14195
C          4.77982        25.55404         1.01834
C          6.15602        28.10913         0.38783
C          4.84190        27.69162         0.58744
C          6.26390        29.33000        -0.32076
C          5.14175        29.96944        -0.86855
C          8.76085         3.52789        -0.66244
C          7.51699         4.27913        -0.88333
C          8.59544         6.29038         0.30850
C          7.44419         5.71893        -0.45021
C          8.60041         7.75807         0.46006
C          7.36029         8.43880         0.40755
C          8.58930        10.56622         0.83587
C          7.35471         9.84831         0.62689
C          8.60971        11.97747         1.04106
C          7.35014        12.70667         1.21182
C          8.54866        14.89033         1.26649
C          7.33316        14.18260         1.19417
C          8.51772        16.32047         1.34159
C          7.31435        17.04476         1.53234
C          8.52760        19.21573         1.36466
C          7.28437        18.45321         1.58100
C          8.58294        20.72793         1.42180
C          7.32686        21.43335         1.46538
C          8.60347        23.63935         1.78775
C          7.28025        22.86538         1.65503
C          8.62626        25.16825         1.57628
C          7.27581        25.79810         1.16259
C          8.59344        27.66811         0.06678
C          7.37590        27.35558         0.96897
C          8.65496        28.91598        -0.56737
C          7.61780        29.97561        -0.30674
C         11.17580         3.48585        -0.25440
C          9.90948         4.14351        -0.22668
C         11.13884         6.26560         0.51319
C          9.87361         5.52075         0.33711
C         11.11660         7.70217         0.69883
C          9.84395         8.43429         0.64167
C         11.06347        10.60874         0.73701
C          9.81426         9.84331         0.76317
C         11.04277        12.03143         1.09620
C          9.83382        12.71474         1.16586
C         11.05031        14.85936         1.38129
C          9.82838        14.17896         1.29892
C         11.10086        16.33362         1.25943
C          9.79010        17.05837         1.23445
C         11.06539        19.23060         1.79947
C          9.78699        18.48246         1.67677
C         11.06337        20.70830         1.71951
C          9.86781        21.45152         1.65693
C         11.09186        23.72113         1.74664
C          9.83987        22.86891         1.66151
C         10.99992        24.87235         0.76652
C          9.80331        25.57580         0.69964
C         10.84312        27.17584        -0.85348
C          9.72027        26.79640        -0.05223
C         10.77765        28.37128        -1.61578
C          9.70785        29.23214        -1.44445
C         13.60684         3.52185        -0.20917
C         12.34846         4.15635         0.07074
C         13.59427         6.20137         0.84012
C         12.32597         5.55233         0.46079
C         13.60980         7.68557         0.91557
C         12.34065         8.37674         0.86535
C         13.59679        10.59863         1.13165
C         12.37171         9.84942         0.78244
C         13.58167        11.96267         1.24291
C         12.29852        12.68222         1.58789
C         13.52746        14.85541         1.44292
C         12.32001        14.17766         1.40839
C         13.59213        16.28634         1.93170
C         12.33999        17.09254         1.60088
C         13.59391        19.21583         1.92343
C         12.33518        18.45558         1.69693
C         13.62613        20.64883         1.62071
C         12.36182        21.39415         1.80613
C         13.58724        23.49754         1.09782
C         12.37510        22.90382         1.68008
C         13.46538        24.71696         0.32429
C         12.17857        25.31652         0.07411
C         13.24228        26.90536        -1.49997
C         12.08028        26.43398        -0.79717
C         13.17687        28.11775        -2.30406
C         11.83735        28.72565        -2.61880
C         15.95910         3.47032        -0.72111
C         14.84028         4.10579        -0.02994
C         16.11838         6.28418         0.58709
C         14.90748         5.42802         0.68620
C         16.06969         7.71103         0.64952
C         14.81807         8.38568         0.92911
C         16.11298        10.60626         1.09996
C         14.84751         9.81749         1.44067
C         16.01704        12.06597         0.86329
C         14.80928        12.73567         1.14024
C         15.93196        14.89517         0.81372
C         14.77247        14.16176         1.16415
C         15.95782        16.35108         0.97202
C         14.86619        17.01352         1.55685
C         16.15541        19.24177         1.65439
C         14.91438        18.43817         1.88231
C         16.09875        20.68898         1.52390
C         14.84706        21.36407         1.49913
C         16.02916        23.56427         1.04845
C         14.78861        22.79898         1.22080
C         15.93831        24.83642         0.18785
C         14.61081        25.26249        -0.29596
C         15.69422        26.77027        -1.98032
C         14.49364        26.30260        -1.25461
C         15.61145        28.10159        -2.73459
C         14.29329        28.74517        -2.77058
C         18.49410         3.38090        -1.10564
C         17.27000         3.65981        -0.38176
C         18.49276         6.34854        -0.08610
C         17.36619         5.68589         0.45087
C         18.43717         7.77583        -0.08913
C         17.26635         8.42693         0.39373
C         18.38885        10.66009        -0.07974
C         17.33163         9.88860         0.60418
C         18.31131        12.07978        -0.10529
C         17.14795        12.78051         0.39558
C         18.19632        14.93482        -0.21574
C         17.08882        14.20731         0.33641
C         18.11644        16.40645        -0.30065
C         17.09464        17.08179         0.52725
C         18.33922        19.29446         0.21445
C         17.31175        18.46088         0.92039
C         18.43241        20.75793         0.53706
C         17.45113        21.40227         1.53814
C         18.57557        23.61897         0.69723
C         17.36570        22.91022         1.24040
C         18.41677        24.86284        -0.10143
C         17.16737        25.32147        -0.46409
C         18.27741        27.17156        -1.84521
C         17.04902        26.29951        -1.55639
C         18.05257        28.53459        -2.37719
C         16.81877        28.93536        -2.82607
C         19.55858         4.24097        -1.08614
C         20.70047         6.40559        -1.06775
C         19.59783         5.63607        -0.66380
C         20.69187         7.80498        -0.99796
C         19.56515         8.51885        -0.56843
C         20.51187        10.73717        -1.25567
C         19.49153         9.97765        -0.63424
C         20.45762        12.11676        -1.27409
C         19.37821        12.82043        -0.68656
C         20.53021        15.00999        -1.00772
C         19.33631        14.26604        -0.68210
C         20.60105        16.36029        -0.90850
C         19.40600        17.17000        -0.66735
C         20.72906        19.27563        -0.37999
C         19.54772        18.58983        -0.27146
C         20.83256        20.66298        -0.07354
C         19.75665        21.41819         0.35051
C         20.95025        23.59302         0.08349
C         19.82763        22.85907         0.43080
C         20.86135        24.96774        -0.25777
C         19.62747        25.56393        -0.49387
C         20.49228        27.85483        -1.01619
C         19.50932        26.89208        -1.08084
C         20.32023        29.12474        -1.65252
C         19.16120        29.45666        -2.30116
O         12.57301        22.28423         2.99292
O          3.40997        23.06991        -1.22189
O          8.60890        19.94638         0.09869
O         18.22082        23.69179         2.13519
O         14.23589         5.50426         1.97421
O          2.15548        18.76380        -0.89345
O         17.49579         4.34759         0.82467
O          2.56034         9.98539         1.09547
O         17.29639        18.69083         2.36185
O          4.55736        26.78831         1.61101
O         15.58187        26.80454        -3.43022
O         17.91549        26.04012        -2.69816
O         10.29340        18.72532         3.01461
O          8.98022         5.57575         1.52760
O          7.80931        23.31471         2.98062
O         10.51707        16.81806        -0.01844
O          3.13337        15.34875         2.48230
O          5.99278        20.14996         2.89614
O         11.84368        10.33884        -0.51656
O          5.35866        16.56434         2.95978
O         18.32167        16.95902        -1.64251
O         15.99000        24.88122         1.65627
O          2.99976        26.23237        -1.59199
O         17.19764        10.27567         2.04100
O          3.68828        19.07202         2.52768
O          3.88381         5.59883         0.44821
O         17.78902        20.31231        -0.70378
O          6.46331        12.21350         2.31946
O         14.28887        18.81146         3.16534
O          7.75134         5.44746        -1.85712
O         11.41861        28.25640        -3.92121
H         11.43649        27.27726        -3.91192
O         14.82441         9.67750         2.89422
H         15.76557         9.59850         3.17899
O          7.62461        27.97095         2.25680
H          8.25552        27.37626         2.74401
O         12.21328        12.53669         3.06212
H         12.90873        13.10517         3.46005
O          7.84851        30.54783         0.99450
H          7.79384        29.81130         1.65247
O         18.01840        21.23498         2.84929
H         18.28201        22.12871         3.17312
O          8.88491        25.73809         2.89665
H          8.47794        25.12592         3.55258
O         11.07730        24.33293         3.06505
H         11.43988        23.66148         3.68884
O         13.58473        16.16284         3.39325
H         13.76143        17.06941         3.75117
O          5.22071        13.00059        -1.02079
H          4.43593        13.40635        -1.44591
H          1.83790         2.90679        -3.26762
H          0.08957         4.38472        -4.25560
H          0.03984         6.79706        -3.72117
H         -0.00545         8.67744        -3.21572
H         -0.19910        10.98360        -2.40348
H         -0.86556        12.37700        -0.83488
H         -0.93462        14.75330        -0.29415
H         -1.00206        16.56654         0.12964
H         -1.03353        18.98245         0.06904
H         -0.93705        20.97854         0.23323
H         -0.88354        23.42527         0.19571
H         -0.80686        25.23638        -0.71082
H         -0.73832        27.61628        -1.26555
H          0.54561        29.73593        -1.69968
H          3.94734         2.67819        -2.14852
H          2.70897        30.89607        -1.89872
H          6.30732         2.54826        -1.55060
H          5.26231        30.95862        -1.33377
H          8.78940         2.47076        -0.96656
H          7.69115        30.79921        -1.05793
H         11.22818         2.44997        -0.62069
H          9.68850        30.19122        -1.98305
H         13.56255         2.53854        -0.70224
H         11.92804        29.83790        -2.70211
H         15.71214         2.83607        -1.58593
H         14.20170        29.72918        -3.25600
H         18.57364         2.45211        -1.69144
H         16.68333        29.98139        -3.14235
H         20.46109         3.91617        -1.63043
H         21.57577         5.90169        -1.50338
H         21.58437         8.34257        -1.34534
H         21.36574        10.23449        -1.72830
H         21.26770        12.66287        -1.77376
H         21.45527        14.45829        -1.21890
H         21.57733        16.85540        -1.00026
H         21.63304        18.77242        -0.74884
H         21.80955        21.14117        -0.22545
H         21.92606        23.09917        -0.02716
H         21.78485        25.50646        -0.51133
H         21.42365        27.66119        -0.46567
H         21.13846        29.85554        -1.59092
H         19.04276        30.45216        -2.75263
