         236
 CSIRO Nanostructure Databank - Neutral Graphene Oxide Data Set
C        -11.14006         0.61427         0.55574
C         -9.92293         1.38925         0.42555
C         -8.68712         0.60497         0.20416
C         -7.39515         1.35552         0.09420
C         -6.16269         0.51844         0.41735
C         -4.85634         1.31960         0.24713
C         -3.57456         0.68360        -0.13146
C         -2.34366         1.46825         0.10566
C         -1.06785         0.72979        -0.00496
C          0.14841         1.51118        -0.28638
C          1.44695         0.80192        -0.17273
C          2.70302         1.38901        -0.71672
C          3.85895         0.68268        -0.74273
C          5.13580         1.35577        -1.28237
C          6.33598         0.68893        -0.63133
C          7.66547         1.32509        -0.85498
C          8.82811         0.44915        -0.65401
C         10.56053         1.57280        -0.00144
C         11.47442         0.65154         0.65388
C         -9.87411         2.76904         0.41571
C         -8.64208         3.53020         0.30914
C         -7.38546         2.83729         0.23063
C         -6.18654         3.55188         0.24212
C         -4.89154         2.82818         0.32966
C         -3.62620         3.59895         0.08976
C         -2.46089         2.85064        -0.51953
C         -1.18196         3.63339        -0.43898
C          0.04923         2.87677        -0.35300
C          1.22734         3.73327        -0.12667
C          2.83265         2.68924        -1.47285
C          3.94971         3.58549        -0.99136
C          5.20230         2.85138        -0.89606
C          6.37521         3.48136        -0.52606
C          7.72227         2.83357        -0.65865
C          8.91108         3.51990        -0.04285
C         10.10761         2.80454         0.41012
C         -8.62965         4.93716         0.36992
C         -7.42742         5.68940         0.29305
C         -6.17545         4.98870         0.18360
C         -4.97854         5.73043         0.01397
C         -3.66731         5.06513        -0.07134
C         -2.53279         5.67817        -0.89352
C         -1.20593         5.01170        -0.53010
C          0.02633         5.79551        -0.57981
C          1.27789         5.02798        -0.95707
C          2.56104         5.68198        -0.52963
C          3.83611         4.91982        -0.65360
C          5.01295         5.62797        -0.11258
C          6.32128         4.87240        -0.03343
C          7.58727         5.64193         0.11468
C          8.79422         4.85339         0.29219
C         -7.39684         7.11579         0.37970
C         -6.20521         7.84049         0.29746
C         -4.96531         7.15032         0.02368
C         -3.74844         7.85934        -0.14521
C         -2.51362         7.24993        -0.79391
C         -1.26116         7.82150        -0.04912
C          0.03462         7.14499        -0.42237
C          1.31593         7.96204        -0.56199
C          2.54615         7.13385        -0.19791
C          3.84983         7.82783        -0.05721
C          5.01967         7.11564        -0.07891
C          6.34234         7.84871        -0.09979
C          7.55434         7.00069         0.23148
C         -6.13618         9.27097         0.48383
C         -4.94480         9.93535         0.45602
C         -3.69053         9.26698         0.14895
C         -2.48546         9.96932         0.16356
C         -1.16275         9.35026        -0.22661
C          0.08853         9.87750         0.45679
C          1.28453         9.25424         0.24216
C          2.56858         9.82151         0.62744
C          3.78713         9.21217         0.39556
C          5.05739         9.80003         0.81214
C          6.23575         9.15246         0.66210
C        -11.16380        -0.75289         0.49187
C         -9.96520        -1.57197         0.37607
C         -8.66791        -0.85181         0.67430
C         -7.46597        -1.59550         0.13943
C         -6.30910        -0.86623        -0.20490
C         -5.27636        -1.59332        -0.80950
C         -3.40138        -0.51622        -0.77171
C         -2.31322        -1.42622        -0.50543
C         -1.07559        -0.74342        -0.15286
C          0.09351        -1.42451        -0.01346
C          1.39150        -0.70926         0.03048
C          2.58656        -1.51130        -0.27936
C          3.83238        -0.79734        -0.60951
C          5.13440        -1.53049        -0.43975
C          6.31710        -0.69486        -0.06538
C          7.57352        -1.38211         0.49609
C          8.84914        -0.76368        -0.03439
C         10.09042        -1.45939         0.30811
C         11.29744        -0.71052         0.63508
C         -9.98816        -2.92031         0.19201
C         -8.76133        -3.75947        -0.10278
C         -7.46968        -2.98009        -0.03959
C         -6.22847        -3.68217        -0.22076
C         -5.04745        -2.95944        -0.57633
C         -3.72313        -3.58076        -0.63867
C         -2.43896        -2.83290        -0.54569
C         -1.21725        -3.59870        -0.28152
C          0.01058        -2.89465         0.28402
C          1.31654        -3.60723         0.08011
C          2.53524        -2.90268        -0.10042
C          3.80374        -3.68759        -0.01403
C          5.11585        -2.97499        -0.07486
C          6.36521        -3.57088         0.44233
C          7.55366        -2.89396         0.38453
C          8.82108        -3.60997         0.44947
C         10.04011        -2.83589         0.51010
C         -8.60793        -5.06367         0.71457
C         -7.36102        -5.82122         0.26214
C         -6.16803        -5.09210        -0.11780
C         -4.92366        -5.76686        -0.41650
C         -3.70552        -4.98013        -0.57690
C         -2.41547        -5.69694        -0.76418
C         -1.17219        -4.97304        -0.38496
C          0.03776        -5.74435        -0.07684
C          1.29513        -5.03825         0.20719
C          2.48174        -5.71976         0.46024
C          3.71296        -4.93446         0.85008
C          5.02400        -5.74363         0.84709
C          6.34604        -5.02407         0.70805
C          7.59009        -5.76723         0.41081
C          8.80760        -5.00592         0.37156
C         -7.37168        -7.17573         0.14782
C         -6.22029        -7.93790        -0.44782
C         -4.92016        -7.16053        -0.50719
C         -3.70611        -7.97881        -0.91792
C         -2.39117        -7.18373        -0.94573
C         -1.05022        -7.93680        -0.81710
C          0.03339        -7.12511        -0.12023
C          1.21080        -7.89998         0.31743
C          2.50814        -7.17072         0.61206
C          3.79064        -7.88667         0.42923
C          5.00921        -7.18370         0.50537
C          6.24918        -7.85383         0.29930
C          7.50579        -7.14665         0.29347
C         -6.04596        -9.26714         0.25198
C         -4.84141        -9.86125         0.37387
C         -3.61452        -9.25562        -0.10157
C         -2.42250        -9.89478         0.10201
C         -1.14606        -9.32322        -0.21134
C          0.01867       -10.02548        -0.00224
C          1.29338        -9.35240         0.02654
C          2.51636        -9.98654         0.02593
C          3.76944        -9.27810         0.15710
C          5.01269        -9.94478        -0.00577
C          6.21045        -9.25473         0.05834
O         -0.96919         9.69722        -1.63290
H         -1.62381         9.15861        -2.15614
O         -7.67267        -3.71993         2.42771
H         -6.85704        -4.18637         2.73458
O          6.56006         8.23664        -1.50879
H          5.83477         8.84763        -1.76092
O         -2.74035         5.29172        -2.24213
O          6.00667         0.46897         0.78557
O         -8.08706         0.86288        -1.10552
O          7.82784         2.21913        -1.98722
O         -3.25191         4.46458         1.20955
O          3.46359        -4.46567         2.19928
H          4.25772        -4.70371         2.73764
O         -4.68193         2.04145         1.54351
O          5.47868         5.03709         1.16137
O         -4.39508        -0.93408        -1.64796
O         -0.54022        -8.14243        -2.16392
H         -0.82695        -7.35946        -2.69087
O          1.45226         8.33165        -1.95661
H          0.68709         8.92908        -2.15838
O          7.56621        -1.17024         1.93643
H          7.12901        -0.30168         2.09978
O          1.22754         4.87272        -2.37643
H          0.33832         4.54979        -2.63296
O         -2.77173         2.64140        -1.91714
H         -2.79620         3.57267        -2.31410
O         -2.34797        -6.32339        -2.13969
O         -1.48207         7.61092         1.36715
H         -1.33582         6.66333         1.57579
O         10.00682         1.00094        -1.16874
O          2.35442         6.16267         0.86266
O          5.80906        -5.41720         2.04476
O         -6.22942         0.16615         1.82346
H         -5.77643         0.87947         2.33426
O         -2.55796         7.72855        -2.15281
H         -2.67010         6.87425        -2.69115
O         -8.59783        -4.80701         2.15623
H         -8.36084        -1.72337         2.43105
O         -3.94229        -8.41299        -2.29828
H         -3.62273        -7.67545        -2.86970
O          1.94720         3.55074         0.84339
O         -8.93823        -4.18957        -1.48367
H         -8.12894        -4.66861        -1.76328
O         -6.60810        -8.23827        -1.83343
H         -5.78135        -8.55314        -2.28218
O          5.19939         1.21622        -2.70350
H          4.43180         1.67740        -3.10316
O         -0.20000        -2.95236         1.74547
H          0.53212        -2.46059         2.17723
O          2.28444         2.78663        -2.56053
O          1.63607        -7.63872         1.70394
O         -1.62513         1.22373         1.32496
O          4.60844        -1.33232        -1.77071
O          1.62006         0.20835         1.16303
O         -8.59622        -0.81828         2.12375
O          4.60844        -3.81834        -1.20664
H         12.09662        -1.31550         1.09543
H         12.35238         1.05727         1.18151
H         10.64817         3.28420         1.24200
H          9.67119         5.36461         0.72015
H          8.49963         7.54414         0.39125
H          7.16861         9.62970         0.99990
H          5.03030        10.78364         1.30654
H          2.55865        10.81568         1.10300
H          0.04798        10.83866         0.99413
H         -2.51375        11.05201         0.37216
H         -4.91716        11.01830         0.64802
H         -7.06671         9.81903         0.69266
H         -8.34209         7.65513         0.54449
H         -9.58439         5.47549         0.47154
H        -10.81012         3.33718         0.53584
H        -12.08972         1.16192         0.65660
H        -12.13571        -1.27048         0.51664
H        -10.95812        -3.42937         0.06631
H         -9.50204        -5.71599         0.56700
H         -8.28092        -7.74508         0.39620
H         -6.95218        -9.77659         0.61196
H         -4.75815       -10.84275         0.86657
H         -2.42664       -10.86890         0.61684
H         -0.02447       -11.09378         0.26196
H          2.55767       -11.07369        -0.14084
H          5.01531       -11.02689        -0.20109
H          7.15797        -9.79355        -0.08742
H          8.42399        -7.73496         0.14293
H          9.76088        -5.54963         0.28435
H         10.97448        -3.37306         0.73691
