         276
 CSIRO Nanostructure Databank - Neutral Graphene Oxide Data Set
C        -10.59915         0.37542         2.02045
C         -9.64212         1.30052         1.29884
C         -8.59586         0.55983         0.44429
C         -7.41696         1.38603        -0.01570
C         -6.17824         0.68144        -0.41994
C         -4.96504         1.35025        -0.53874
C         -3.82418         0.71004        -1.04315
C         -2.55348         1.40831        -0.93696
C         -1.27679         0.88442        -1.59491
C         -0.13867         1.47011        -0.77793
C          1.07542         0.69584        -0.39059
C          2.29827         1.49947        -0.02292
C          3.54621         0.71710         0.24896
C          4.86478         1.34783        -0.11575
C          6.11884         0.70030         0.35068
C          7.31619         1.35883         0.33688
C          8.54452         0.77963         0.95540
C          9.94531         1.37972         0.57075
C         10.74806         0.31705        -0.14739
C         -8.87056         2.37169         2.14290
C         -8.46248         3.49125         1.21859
C         -7.26397         2.67046         0.80360
C         -6.00351         3.45950         0.52909
C         -5.14222         2.88006        -0.60532
C         -3.84480         3.66380        -1.00601
C         -2.54842         2.91459        -0.73428
C         -1.26669         3.64429        -0.98963
C         -0.09752         2.96255        -0.94684
C          1.25948         3.51946        -1.33207
C          2.25896         3.02880        -0.25672
C          3.63856         3.64279        -0.42071
C          4.87485         2.82136        -0.45807
C          6.19501         3.53729        -0.44341
C          7.44054         2.76016        -0.13699
C          8.71847         3.55391         0.28572
C          9.78335         2.63627        -0.22330
C         -8.45936         4.82449         1.40306
C         -7.44649         5.68839         0.68462
C         -6.10228         4.95113         0.54934
C         -4.99693         5.75801        -0.08403
C         -3.67902         5.03427        -0.29456
C         -2.58291         5.86018        -0.97136
C         -1.35181         5.06606        -1.49998
C         -0.02368         5.84842        -1.41523
C          1.28467         5.07599        -1.42264
C          2.50083         5.79218        -0.89298
C          3.69547         4.99817        -0.49826
C          4.94270         5.74122        -0.21088
C          6.22941         4.99825        -0.14609
C          7.52376         5.72816        -0.29324
C          8.70270         4.96920        -0.25620
C         -7.19490         7.03285         1.34555
C         -6.05891         7.74598         1.12214
C         -4.97526         7.21833         0.23856
C         -3.70102         8.05251         0.09017
C         -2.49812         7.27838        -0.49434
C         -1.11484         7.73047        -0.04143
C          0.01445         7.27127        -0.95047
C          1.30989         7.93409        -0.64680
C          2.45839         7.23566        -0.53688
C          3.70124         7.91260         0.00697
C          4.97588         7.22119        -0.52395
C          6.25620         7.89273         0.02146
C          7.49756         7.12700        -0.37232
C         -5.80740         9.03305         1.77303
C         -4.57043         9.56070         1.87282
C         -3.35821         8.79767         1.39033
C         -2.13934         9.65520         1.16359
C         -1.05210         9.18002         0.42292
C          0.12232         9.92498         0.26468
C          1.23841         9.44195        -0.62750
C          2.58600        10.09790        -0.45325
C          3.73577         9.39715        -0.30821
C          5.05108        10.03050        -0.42012
C          6.21871         9.35679        -0.34416
C        -10.58987        -0.96575         1.93323
C         -9.40295        -1.68787         1.41169
C         -8.35157        -0.89151         0.72013
C         -7.24971        -1.61649        -0.01715
C         -6.15149        -0.79085        -0.58642
C         -5.16656        -1.40092        -1.55349
C         -3.91752        -0.54515        -1.88408
C         -2.57849        -1.35421        -1.86412
C         -1.25255        -0.63237        -1.76416
C          0.07000        -1.36079        -1.54867
C          1.25901        -0.70902        -0.88378
C          2.42728        -1.38731        -0.67057
C          3.44672        -0.82704         0.32104
C          4.82666        -1.48100         0.32274
C          5.90785        -0.64111         1.04213
C          7.22486        -1.40101         1.30172
C          8.51665        -0.63451         1.43541
C          9.87154        -1.37754         1.46235
C         10.72594        -0.95014         0.27645
C         -9.34246        -3.15388         1.25511
C         -8.46864        -3.78249         0.39467
C         -7.65651        -2.94454        -0.64714
C         -6.46016        -3.78411        -1.29986
C         -5.21608        -2.90073        -1.70757
C         -3.88626        -3.61994        -1.95909
C         -2.62540        -2.84035        -1.60473
C         -1.31142        -3.56810        -1.48855
C          0.02831        -2.86445        -1.51526
C          1.23679        -3.49624        -0.83747
C          2.57792        -2.82166        -1.22906
C          3.94983        -3.59158        -0.82588
C          4.92876        -2.81290         0.07162
C          6.21120        -3.54702         0.32140
C          7.33358        -2.85547         1.01288
C          8.63940        -3.56348         1.13500
C          9.75847        -2.88429         1.43874
C         -8.39771        -5.19106         0.32309
C         -7.20886        -5.86203        -0.06007
C         -6.01314        -5.02906        -0.50654
C         -5.06843        -5.84797        -1.40170
C         -3.82990        -5.12937        -1.88670
C         -2.51737        -5.83329        -1.66539
C         -1.29772        -5.00904        -1.94836
C         -0.13676        -5.61053        -0.04151
C          1.13461        -4.86184        -0.19992
C          2.34671        -5.67831         0.11654
C          3.73527        -5.17919        -0.30656
C          4.71909        -5.46479         0.85744
C          6.14431        -5.02508         0.56986
C          7.28617        -5.72741         1.21832
C          8.64985        -5.08159         1.06130
C         -7.10859        -7.22565         0.10186
C         -5.78590        -7.91371        -0.03007
C         -4.96397        -7.31148        -1.15914
C         -3.66347        -8.01248        -1.43443
C         -2.42941        -7.17549        -1.40716
C         -1.16301        -7.86530        -1.01009
C         -0.09030        -7.07206        -0.31537
C          0.89329        -7.71721         0.67773
C          2.19263        -6.91029         0.68752
C          3.34569        -7.60999         1.31332
C          4.65721        -6.91968         1.33871
C          5.90454        -7.77558         1.21423
C          7.15197        -7.01568         1.60571
C         -5.87173        -9.41806        -0.15117
C         -4.85408       -10.13371        -0.65032
C         -3.60622        -9.48083        -1.14018
C         -2.31415       -10.08414        -0.78552
C         -1.16362        -9.32769        -0.70236
C          0.07065        -9.91029        -0.30174
C          1.13889        -9.17417         0.27029
C          2.31916        -9.78725         0.63956
C          3.20816        -9.09614         1.62684
C          4.53758        -9.75487         1.91025
C          5.72383        -9.13254         1.85524
O          4.84692         1.79303        -1.50696
O         -0.41566        -5.37674        -2.72054
O         -2.46306         2.04140         0.40424
O          1.04520        -3.62213         0.60455
O         -5.68944        -6.80239        -2.30178
O          3.88496        -6.99299         2.57233
O          5.51378         5.33620         1.09569
O          4.67873        -3.69721        -2.00096
O         -7.41663         2.04235         2.20080
O         -0.03597         0.89683         0.55508
O         -8.54235         1.06805        -0.90720
O          0.09361        -7.46609        -1.67514
O          0.33985        -2.16696        -2.73020
O         -2.82877         6.96262        -1.88707
O         -8.20427        -1.16769         2.14846
O         -0.14515         6.98535        -2.36327
O         -6.00346        -1.51079         0.71306
O          2.80646         1.30967         1.35531
O         -5.66250        -2.00269        -2.77577
O         -8.59919        -2.65629        -1.60926
O         -2.10630        -3.26618        -0.29487
O          2.25823         5.58732        -2.36386
O          6.97323        -2.37141         2.37567
O         -5.55308         4.20139         1.70134
O         -5.43343         6.71906        -1.07826
O          8.42909         0.47668         2.37989
O         -3.69517        -8.97869        -2.53292
O         -6.04574         2.89333        -1.67873
O          7.08864         3.08545        -1.50277
O         -3.87051        -4.41807        -3.16531
O          6.55667        -4.50199        -0.72749
O         -1.81204        -1.02904        -3.05184
O          1.71839         3.60194         0.95607
H          2.09688         3.11043         1.71977
O         -3.09925         4.81667         1.01116
H         -3.78698         4.40981         1.59876
O         -3.06038         7.78315         2.40509
H         -2.91569         8.23851         3.26110
O         -0.83055         6.93120         1.14751
H         -1.58950         7.02443         1.78048
O         -5.26183        -4.62244         0.65267
H         -5.07124        -5.42922         1.18483
O          6.26566         7.85051         1.48570
H          6.22869         6.89233         1.74252
O          5.37851        -0.28892         2.33799
H          5.39286        -1.11026         2.87924
O          9.12529        -5.46840        -0.24226
H          8.42459        -5.20533        -0.88579
O          0.29084        -7.70406         1.97955
H          0.88471        -8.24808         2.56475
O          2.88150        -1.18943         1.60450
H          2.53828        -0.35865         2.01605
O          4.04875        -5.98932        -1.41994
H          4.50150        -5.36326        -2.06784
O          4.31351        -4.61013         1.94854
H          3.81295        -5.16603         2.59330
O         -4.08548        -0.06080        -3.22749
H         -4.60449        -0.73809        -3.72368
O          0.80131         9.84938        -1.97531
H          0.35185         9.08775        -2.40574
O         -5.01103        -7.59419         1.18750
H         -5.45659        -8.02488         1.94828
O          1.63434         2.94471        -2.58478
H          0.97753         3.20878        -3.26374
O          5.02248         7.35685        -1.95761
H          4.19628         6.99166        -2.34367
O         -6.98532        -4.29510        -2.51197
H         -7.76769        -3.71040        -2.72309
O          2.60490        -2.72174        -2.64261
H          3.52518        -2.98796        -2.92887
O         -3.92347         3.89847        -2.40694
H         -4.83537         3.58862        -2.67606
O          8.76187         3.69156         1.70510
H          9.47326         3.10048         2.06557
O         10.61976         1.70706         1.81112
H         10.66305         0.86938         2.34406
O         -0.95386        -5.18557         0.88918
H         -0.66399        -4.27790         1.17745
O         10.57226        -0.97085         2.66390
H          9.95216        -1.07451         3.41713
O          3.62256         7.75914         1.44052
H          4.48981         8.05667         1.81445
O         -1.19494         1.46609        -2.90556
H         -1.74210         0.91141        -3.51048
O         -7.95836         5.91443        -0.64713
H         -7.24714         6.36018        -1.16911
O        -10.50495         2.05507         0.41870
H        -10.08848         2.05981        -0.47652
O          2.46735        -9.14290         2.90559
H          2.97140        -8.56258         3.52245
O          6.02260        -8.02355        -0.21908
H          6.92122        -8.36804        -0.40257
O         -3.99327         9.09237        -0.86325
H         -4.17452         8.63986        -1.71800
O         -1.56562         4.88562        -2.91720
H         -1.87488         5.75085        -3.26914
H         11.34303        -1.71678        -0.21537
H         11.38860         0.61518        -0.99095
H          9.86413         2.54997        -1.32113
H          9.65290         5.52158        -0.16500
H          8.45172         7.67132        -0.45484
H          7.17251         9.89080        -0.47103
H          5.06321        11.10926        -0.64312
H          2.62825        11.18123        -0.64996
H          0.15840        10.95304         0.65946
H         -2.11231        10.67791         1.57264
H         -4.41868        10.52769         2.37673
H         -6.67039         9.56236         2.20510
H         -7.97265         7.45139         2.00422
H         -9.23066         5.30638         2.02329
H         -9.30325         2.60483         3.14082
H        -11.46481         0.87615         2.48032
H        -11.40349        -1.55822         2.37845
H         -9.87587        -3.76437         2.00454
H         -9.27361        -5.79336         0.61411
H         -7.97508        -7.79435         0.47528
H         -6.78576        -9.91984         0.20314
H         -4.91534       -11.23150        -0.70799
H         -2.28513       -11.14718        -0.50508
H          0.14974       -11.00769        -0.30954
H          2.50899       -10.83397         0.36204
H          4.48331       -10.78112         2.30663
H          6.63584        -9.67826         2.14696
H          8.01776        -7.57309         1.99818
H          9.37061        -5.49212         1.81179
H         10.69586        -3.43406         1.61699
