         576
 CSIRO Nanostructure Databank - Neutral Graphene Oxide Data Set
C          6.41097        19.03459        -2.14637
C          6.32715        20.42620        -2.01265
C          5.21616        21.15413        -2.57661
C          6.25437        23.27643        -1.93744
C          5.18065        22.51472        -2.52687
C          6.23814        24.66227        -1.99022
C          8.77973        14.68827        -1.43854
C          8.73207        16.11720        -1.45560
C          7.63504        16.85926        -1.87978
C          8.57307        18.97516        -1.03364
C          7.55894        18.28855        -1.71753
C          8.40042        20.38810        -0.65705
C          7.34523        21.16865        -1.32518
C          8.44351        23.35874        -0.77410
C          7.35519        22.57920        -1.30719
C          8.41747        24.76780        -0.84606
C          7.28955        25.47061        -1.46114
C          8.10765        27.85330        -1.24254
C          7.22620        26.85230        -1.74740
C          8.55373        29.03078        -1.80665
C         11.08775        10.41851        -0.81523
C         11.01372        11.83118        -0.53894
C          9.96873        12.56800        -1.05024
C         10.97040        14.70558        -0.27950
C          9.85954        13.99544        -0.89743
C         11.05315        16.06524        -0.40221
C          9.96113        16.81999        -1.04169
C         10.88153        18.99817         0.04895
C          9.82738        18.30821        -0.72445
C         10.83589        20.36452         0.14101
C          9.57451        21.13091        -0.04935
C         10.96340        23.31069        -0.24765
C          9.56992        22.67115         0.03498
C         10.92824        24.75124        -0.61865
C          9.65420        25.49077        -0.58859
C         11.04340        27.59869        -0.65006
C          9.82190        26.84535        -0.37949
C         11.01726        28.92224        -1.05036
C          9.79378        29.67667        -1.37791
C         11.11395        31.76676        -1.25730
C          9.88401        31.04970        -1.49458
C         11.08580        33.17902        -1.17360
C         13.49934         6.06320        -0.65345
C         13.39889         7.48861        -0.48429
C         12.25625         8.22450        -0.73501
C         13.35714        10.29584         0.15545
C         12.16458         9.63719        -0.45397
C         13.29882        11.73077         0.57816
C         11.91118        12.41273         0.55026
C         13.35900        14.63411         0.53815
C         11.99051        13.97619         0.58271
C         13.35482        16.01693         0.64068
C         12.29293        16.85295        -0.03424
C         13.20197        18.94217         1.13298
C         11.94747        18.13767         0.74366
C         13.24946        20.41206         0.87002
C         12.14207        21.07164         0.11273
C         13.53012        23.20166        -0.17022
C         12.22742        22.47937        -0.36651
C         13.84836        24.33363        -0.86269
C         12.05888        25.51066        -1.18752
C         13.58821        27.48812        -0.93774
C         12.27420        26.82662        -0.88734
C         13.60269        28.85039        -1.04183
C         12.32888        29.57121        -1.50275
C         13.58433        31.79889        -1.19987
C         12.32686        31.05420        -1.21893
C         13.53929        33.24932        -0.94799
C         12.26942        33.95624        -1.05284
C         13.51397        36.11292        -1.22632
C         12.22905        35.35073        -1.07950
C         13.46658        37.58507        -0.89711
C         15.89298         5.98208        -0.01901
C         14.64703         5.35262        -0.37339
C         15.93054         7.47828        -0.21518
C         14.60098         8.17026         0.13707
C         15.87902        10.37121         0.25774
C         14.65849         9.66015        -0.27890
C         15.80649        11.75829         0.47671
C         14.57968        12.48515         0.57270
C         15.83725        14.61195         0.84543
C         14.59235        13.89160         0.70488
C         15.83349        16.03603         1.06794
C         14.53222        16.70995         1.19524
C         15.81012        18.92899         1.35937
C         14.50877        18.22228         1.41760
C         15.83201        20.40742         1.34778
C         14.55077        21.14515         1.03399
C         16.00686        23.16210         0.46232
C         14.70529        22.44763         0.33379
C         15.96711        24.64902         0.39495
C         14.98216        25.23589        -0.56744
C         15.97361        27.53323         0.05099
C         14.88418        26.74730        -0.65064
C         15.93953        28.90337        -0.08692
C         14.97401        29.52965        -1.08455
C         16.02519        31.82626        -0.41412
C         14.90841        31.06552        -1.03734
C         15.94832        33.27736        -0.38540
C         14.71269        33.93770        -0.65758
C         15.85144        36.17758        -0.11733
C         14.61362        35.40314        -0.46430
C         15.87977        37.62846        -0.40396
C         14.59048        38.27827        -0.60385
C         18.29699         5.94710         0.61131
C         17.05367         5.29228         0.27177
C         18.24644         7.39219         0.94210
C         17.00950         8.16644         0.58440
C         18.28566        10.26971         0.86095
C         17.08541         9.64469         0.49117
C         18.37979        11.72386         0.70984
C         17.07519        12.49514         0.51645
C         18.31337        14.58627         0.99261
C         17.07362        13.92404         0.83251
C         18.29042        16.06185         0.94652
C         17.01055        16.76827         1.16202
C         18.29029        18.91092         1.36002
C         17.01971        18.21337         1.29497
C         18.36880        20.38119         1.07469
C         17.10565        21.14541         1.24688
C         18.33517        23.29962         1.40590
C         17.14844        22.52203         1.13974
C         18.35695        24.69144         1.32147
C         17.12565        25.42630         0.90605
C         18.29374        27.57033         1.00556
C         17.14661        26.88034         0.62896
C         18.24334        29.04125         1.08233
C         16.98437        29.72912         0.53104
C         18.13035        31.96678         0.94907
C         17.06380        31.16765         0.21652
C         18.39166        33.27046         0.17076
C         17.10336        34.03670        -0.03425
C         18.34534        36.18527         0.07337
C         17.10987        35.43147         0.00370
C         18.33357        37.63000        -0.16987
C         17.07356        38.29764        -0.41812
C         20.74669         5.96564         1.00345
C         19.51024         5.29483         0.68244
C         20.72179         7.37959         1.55189
C         19.48484         8.14888         1.16065
C         20.69281        10.24720         1.74555
C         19.46613         9.52553         1.21363
C         20.73778        11.73807         1.44938
C         19.57753        12.45709         1.16942
C         20.78636        14.60894         1.35519
C         19.54783        13.89467         1.13185
C         20.81350        16.06198         1.40962
C         19.57511        16.80835         1.14558
C         20.75450        18.96822         1.54928
C         19.52045        18.25459         1.43604
C         20.75402        20.40861         1.72766
C         19.56263        21.08975         1.63474
C         20.76536        23.28468         2.15044
C         19.43322        22.51696         2.09899
C         20.78347        24.78844         2.06547
C         19.53181        25.48952         1.62168
C         20.69973        27.69163         1.73534
C         19.49042        26.87386         1.45887
C         20.74074        29.13737         1.45858
C         19.49358        29.83740         1.22644
C         20.61240        31.98054         1.63780
C         19.43565        31.21148         1.17599
C         20.61111        33.47647         1.49714
C         19.44032        34.12986         0.84162
C         20.85344        36.20077         0.28453
C         19.51632        35.54017         0.39719
C         20.78570        37.71062         0.16203
C         19.51574        38.33813        -0.10921
C         23.22543         5.99242         0.94073
C         21.94953         5.31683         0.84482
C         23.23602         7.42243         1.09580
C         21.99825         8.15680         1.28550
C         23.24602        10.26972         1.78730
C         21.98557         9.52210         1.40455
C         23.21281        11.74574         1.45509
C         21.98634        12.44920         1.52703
C         23.26709        14.58567         1.80844
C         21.96960        13.88373         1.50590
C         23.24844        16.07908         1.56104
C         21.98517        16.78949         1.55856
C         23.19460        18.97245         1.50405
C         21.98916        18.25148         1.54866
C         23.20637        20.40854         1.39386
C         22.00308        21.16861         1.69942
C         23.07917        23.31339         1.05858
C         22.00482        22.55783         1.76004
C         23.21311        24.79761         1.12312
C         22.18049        25.47686         1.99844
C         23.23192        27.71653         1.34042
C         22.06566        26.97726         1.80919
C         23.22859        29.10700         1.42686
C         21.96523        29.80644         1.59661
C         23.21606        32.04427         1.92254
C         21.92882        31.26077         1.85610
C         23.20141        33.50371         1.71427
C         21.91018        34.23928         1.65274
C         23.24093        36.38523         1.09478
C         21.91516        35.69141         1.25971
C         23.24629        37.77912         0.51580
C         21.95323        38.41587         0.16751
C         25.67729         5.99801         0.69482
C         24.43857         5.30533         0.82674
C         25.65198         7.42988         0.66142
C         24.44779         8.11500         0.99362
C         25.67324        10.33476         0.76176
C         24.51410         9.55161         1.33810
C         25.55416        11.78275         0.60968
C         24.41494        12.45320         1.09061
C         25.63677        14.57680         0.92920
C         24.43141        13.88524         1.15276
C         25.69050        16.00941         1.29604
C         24.42151        16.75710         1.43124
C         25.61615        18.88553         0.79687
C         24.51375        18.25487         1.62587
C         25.49791        20.30869         0.46737
C         24.34521        21.07837         0.94113
C         25.54366        23.26763         0.26574
C         24.27987        22.51431         0.59125
C         25.53391        24.78235         0.18425
C         24.31448        25.48637         0.68703
C         25.69472        27.68715         0.80982
C         24.33771        27.01408         0.58158
C         25.69081        29.14639         1.03489
C         24.48555        29.82957         1.27506
C         25.71381        32.06998         1.32252
C         24.51732        31.26961         1.63021
C         25.67831        33.43754         1.37915
C         24.41184        34.18410         1.41937
C         25.63201        36.04993         0.25091
C         24.43475        35.54070         1.01248
C         25.64450        37.53744        -0.06488
C         24.49410        38.28089        -0.07998
C         28.10951         6.06178         0.32282
C         26.93346         5.34247         0.59236
C         28.00742         7.45850         0.00906
C         26.81322         8.14004         0.22837
C         27.84687        10.37180        -0.61264
C         26.68522         9.59519        -0.05162
C         27.90555        11.83602        -0.39141
C         26.58520        12.55002        -0.18454
C         27.98425        14.64177         0.11679
C         26.75265        13.94762         0.34513
C         28.05330        16.03217         0.33655
C         26.91217        16.76942         0.90331
C         28.02694        18.89814         0.26273
C         26.79465        18.21022         0.59689
C         28.02207        20.29791         0.22513
C         26.80047        21.07829         0.15496
C         28.05903        23.31300         0.29625
C         26.81755        22.52498         0.64552
C         28.01294        24.75157         0.83865
C         26.88276        25.56711         0.10051
C         28.21806        27.72349         0.62328
C         26.86225        27.01185         0.59824
C         28.16913        29.16896         1.07796
C         26.95283        29.84906         1.06738
C         28.20906        31.96095         1.68910
C         27.00010        31.36308         0.93878
C         28.26634        33.48817         1.54176
C         26.95170        34.22242         1.42692
C         28.17600        36.05525         0.17175
C         26.92124        35.68949         1.00027
C         28.13014        37.53097        -0.18415
C         26.90511        38.15374        -0.37152
C         30.58321         6.18560         0.12166
C         29.41917         5.46055         0.35010
C         30.52636         7.56269        -0.31823
C         29.19283         8.13959        -0.55276
C         30.38338        10.37494        -0.86882
C         29.12119         9.62474        -0.86767
C         30.28155        11.82570        -1.11485
C         29.06069        12.54008        -0.64392
C         30.36454        14.67488        -0.55312
C         29.13835        13.97047        -0.41571
C         30.45240        16.02436        -0.17538
C         29.26371        16.74184         0.15307
C         30.53891        18.86736         0.33308
C         29.24952        18.16524         0.22170
C         30.58720        20.32865         0.08834
C         29.27281        21.04458         0.10494
C         30.52800        23.01561        -0.16259
C         29.31356        22.49368         0.52672
C         30.44151        25.14537         0.14610
C         29.32042        25.53169         0.82427
C         30.67483        27.61125         1.38027
C         29.29462        26.92247         1.42696
C         30.69413        29.11545         1.44925
C         29.42800        29.85644         1.24757
C         30.69114        31.97661         1.04022
C         29.48777        31.26022         1.28166
C         30.67326        33.42057         0.84352
C         29.51118        34.14700         1.07695
C         30.66186        36.22222         0.19196
C         29.46764        35.65160         0.91164
C         30.59083        37.58342        -0.24333
C         29.34870        38.22687        -0.36584
C         33.02705         6.30916         0.04381
C         31.89448         5.59630         0.28801
C         32.98542         7.68156        -0.42951
C         31.67509         8.30391        -0.58419
C         32.83220        10.48472        -1.14178
C         31.60582         9.72447        -0.89320
C         32.82160        11.83798        -1.34861
C         31.53979        12.58065        -1.42466
C         32.86206        14.76396        -1.15987
C         31.51096        14.10658        -1.38316
C         32.90916        16.07940        -0.77373
C         31.82151        16.60724         0.12600
C         33.12561        18.88634         0.21660
C         31.82607        18.12134         0.31610
C         33.09546        20.37767         0.25403
C         31.88277        21.05087         0.26627
C         32.96989        23.32869         0.04899
C         31.77196        22.47032        -0.00718
C         32.92692        24.82502         0.01823
C         31.80554        25.58039         0.34561
C         33.30036        27.59358         0.83375
C         31.93927        26.91550         0.96913
C         33.23835        29.11299         0.79184
C         32.01481        29.85289         1.23359
C         33.11392        31.98364         0.56864
C         31.93267        31.29558         0.89926
C         33.07048        33.35066         0.14105
C         31.87715        34.07935         0.35324
C         33.03634        36.16188        -0.40254
C         31.83973        35.48848         0.05404
C         32.98654        37.57465        -0.67704
C         31.80617        38.25521        -0.62312
C         34.13376         8.36324        -0.73386
C         35.34366        10.55174        -1.04787
C         34.12337         9.72256        -1.37569
C         35.35720        11.89808        -1.27769
C         34.08410        12.56172        -1.78077
C         35.28217        14.72795        -1.49903
C         34.08031        14.05261        -1.50320
C         35.26480        16.20203        -1.65434
C         34.02436        16.98944        -1.24260
C         35.61862        18.99543        -0.55431
C         34.33010        18.18634        -0.32436
C         35.39751        20.49398        -0.68219
C         34.30815        21.11389        -0.12625
C         35.55030        23.40414        -0.14890
C         34.27803        22.60194         0.04688
C         35.32915        24.85241        -0.56267
C         34.17874        25.52074        -0.25160
C         35.35040        27.75171        -0.67087
C         34.02560        27.03389        -0.40640
C         35.64755        29.07130         0.04444
C         34.36891        29.79947         0.46451
C         35.49371        31.95380        -1.22412
C         34.38322        31.24560         0.84816
C         35.34758        33.37368        -1.01139
C         34.22397        34.01212        -0.48200
C         34.19703        35.43735        -0.60596
C         36.57106        12.67580        -1.24441
C         37.78638        14.82381        -1.49610
C         36.56849        14.05055        -1.46189
C         37.82574        16.20554        -1.63790
C         36.54770        16.94678        -1.79417
C         37.79272        19.10872        -1.80882
C         36.52031        18.40320        -1.61275
C         37.77405        20.60390        -1.69417
C         36.41460        21.30652        -1.48259
C         37.79936        23.40059        -1.08071
C         36.58590        22.70985        -0.98054
C         37.80048        24.81175        -0.98494
C         36.48696        25.49053        -1.32049
C         37.90848        27.66922        -1.34821
C         36.53361        27.00662        -1.19214
C         37.83484        29.16360        -1.13676
C         36.71576        29.83717        -0.75526
C         36.65614        31.28631        -0.91669
C         39.03231        16.96720        -1.52392
C         40.24242        19.12096        -1.37066
C         39.05740        18.36184        -1.58156
C         40.24606        20.51648        -1.22483
C         39.03386        21.28489        -1.31144
C         40.25933        23.36701        -0.76990
C         39.04661        22.65786        -1.10199
C         40.22212        24.73652        -0.53334
C         39.01841        25.51701        -0.72834
C         39.02058        26.91211        -0.67406
C         41.46080        21.23569        -0.92148
C         41.47089        22.58465        -0.69962
O         19.04846        16.56913        -0.22840
O          8.70420        27.57468         0.01211
O         23.38237        37.56096         1.98239
O         21.67602        35.33909         2.62921
O         27.64112        34.11773         2.72446
O         29.94709        20.73030        -1.17717
O         31.20497        18.48184         1.60588
O         11.76353        14.37638         1.94059
O         15.00930        21.08553         2.39931
O         13.31935        10.61753         1.56734
O         30.66352        12.11206        -2.52108
O         26.67930        16.38846         2.33560
O         26.70856         9.97128        -1.46953
O         15.49127        25.95496        -1.72800
O         25.43140        23.93783        -1.01823
O         11.26820        24.31555         0.79310
O         19.51946        34.03793         2.29430
O         21.39501        27.47584         3.01126
O         20.73281        24.10582         3.36811
O         25.67066         9.87793         2.16375
O         15.90954        25.17094         1.75791
O         24.06023        31.55138         3.00609
O         14.82667        35.82842         0.90165
O         17.16998        29.50224         1.97892
O         35.61535        27.71230        -2.11577
O         14.51465        31.53131        -2.37389
O         10.44422        17.80359        -2.02573
O         14.34548        17.29664         2.53598
O         33.67836        22.96717         1.33592
O         34.06490        18.12499         1.10076
O         17.95318        12.17505        -0.62245
O         15.71102        22.42702        -0.76765
O         37.85753        19.99090        -3.02762
O         31.51515        26.94983         2.38829
O         35.73058        16.53450        -3.01515
O         31.50273        29.57517         2.57914
O         12.35805        21.39354        -1.33145
O         12.80581        19.89859         2.16657
O         20.65990        10.12018         3.17537
O         36.31463        28.70192         1.27845
O         13.00963        24.77579        -1.88519
O         21.04606        31.58065         2.97907
O          8.51351        20.59774         0.80097
O         17.18484         7.68282         1.93587
O         30.34891        24.18233        -0.87744
O         29.01701         8.63338        -1.93054
O         23.19418        22.82249        -0.33125
O         25.88860        20.70254        -0.89710
O         33.14322        27.30416        -1.51459
H         33.70381        27.36263        -2.32236
O         13.91037        36.01871        -2.64256
H         13.15800        36.33509        -3.18551
O         28.05863        31.64036         3.08389
H         27.68465        32.43783         3.53010
O         26.73415        22.30564         2.10465
H         26.86064        23.19016         2.53924
O         36.18661        23.51178         1.16863
H         35.44704        23.55959         1.82239
O         23.46446        14.43527         3.25543
H         24.32729        14.84133         3.48667
O         29.47378        36.25593         2.23783
H         30.25727        35.91796         2.72002
O         26.85821        36.51297         2.16823
H         27.59271        36.24136         2.76711
O         36.23889        25.17203        -2.72054
H         35.72656        25.92195        -3.09837
O         34.10973        12.40675        -3.24318
H         34.82395        12.98296        -3.59115
O         27.22400        31.63721        -0.47536
H         26.65798        31.03763        -1.00490
O         24.93733        18.43965         3.02011
H         25.71666        17.84395         3.15534
O         11.30579        17.72105         1.95788
H         11.40275        18.44617         2.61494
O         17.57367        32.29509         2.23423
H         17.43350        31.44868         2.71710
O          9.25641        22.94339         1.41423
H          9.70385        23.78763         1.65915
O         27.23147        25.65425        -1.29944
H         26.94727        24.79926        -1.71052
O         14.69060         9.78345        -1.71910
H         15.49209         9.30018        -2.03715
O         28.72719        27.80546        -0.73553
H         28.35427        27.04399        -1.24871
O         18.57213        20.43608        -0.40712
H         19.17488        19.70205        -0.65868
O         24.02797        27.27126        -0.83442
H         24.65950        26.74723        -1.37462
O         15.56797        29.20038        -2.37318
H         15.17851        29.81659        -3.03493
O         35.80211        21.47313        -2.79783
H         36.32752        20.90732        -3.41975
O         36.43299        18.86023         0.66457
H         35.79181        18.67870         1.39752
O         35.32068        31.73334         1.47222
H         36.38881        29.51318         1.82671
O         18.95817        22.35129         3.46652
H         19.32012        23.10979         3.98661
O         23.26981        10.26797         3.24223
H         22.30729        10.31334         3.53699
O         28.22982        35.28457        -1.04475
H         27.34969        35.33760        -1.48774
O         29.60591        22.49849         1.96235
H         28.74433        22.35763         2.42272
O         34.41309        31.25056        -1.69205
H         33.67394        31.86594        -1.87229
O         11.21621        12.01446         1.74863
H         11.25119        12.81009         2.35027
O         27.56517        24.72629         2.23536
H         27.94138        25.52079         2.70237
O         14.48032         8.07509         1.56386
H         13.83021         8.73810         1.88610
O         34.07765        27.21700         1.98114
H         33.49214        27.30564         2.76701
O         28.89672        26.94135         2.81426
H         29.71087        26.79616         3.34886
O         38.21471        27.53191        -2.77704
H         37.43459        27.88488        -3.25961
O         32.14283        16.02912         1.43441
H         31.84177        16.67841         2.11219
O         20.64844         7.29363         3.00670
H         20.60851         8.23845         3.33148
O         26.01095        12.67802        -1.54386
H         26.06232        11.77634        -1.94700
O         31.18893        14.56900        -2.72846
H         30.74379        13.81582        -3.18889
O         22.80000        25.32777         3.30191
H         22.24911        25.83296         3.94200
O         18.93524        32.91236        -1.12933
H         18.21370        32.51710        -1.66421
O         25.59789        35.34310        -1.03408
H         24.78343        35.61701        -1.50705
O         12.94793        17.28011        -1.26579
H         12.22781        17.58224        -1.88113
O         33.48465        17.63458        -2.43116
H         34.07193        17.38174        -3.18614
O         12.34227        29.46860        -2.97100
H         13.05337        30.06783        -3.29139
O         16.25798         7.67804        -1.62298
H         15.70049         7.06537        -2.14875
O         21.40626        35.72579        -1.00812
H         20.74439        35.92680        -1.70464
O         34.19740         9.50256        -2.82621
H         34.10187        10.38982        -3.25182
H          5.59602        18.50107        -2.65822
H          4.40625        20.58913        -3.05996
H          4.33640        23.06482        -2.96768
H          5.38920        25.16516        -2.47794
H          7.94111        14.12435        -1.87417
H          6.74687        16.33492        -2.26300
H          6.47334        27.16835        -2.48719
H          8.02461        29.47697        -2.66206
H         10.25160         9.96021        -1.36819
H          9.21755        12.06401        -1.67959
H          8.98810        31.63344        -1.74984
H         10.11740        33.69426        -1.25419
H         12.59749         5.51441        -0.96652
H         11.37124         7.72467        -1.16098
H         11.26261        35.86949        -1.16810
H         12.51284        38.11889        -1.03167
H         14.62000         4.25349        -0.43107
H         14.54868        39.37344        -0.49707
H         17.04010         4.19045         0.25851
H         17.09356        39.38100        -0.61130
H         19.56391         4.22708         0.41551
H         19.50135        39.42988        -0.24751
H         21.95301         4.25989         0.53375
H         21.94738        39.49989        -0.02659
H         24.43611         4.20570         0.78914
H         24.52726        39.33056        -0.41249
H         26.98524         4.25247         0.73258
H         26.89164        39.22090        -0.64666
H         29.49832         4.40036         0.63446
H         29.31956        39.28121        -0.68198
H         34.01338         5.83994         0.17525
H         31.95875         4.55053         0.62288
H         33.91395        38.08260        -0.97862
H         31.76045        39.32168        -0.88678
H         35.10652         7.85988        -0.61877
H         36.28095        10.02947        -0.79691
H         36.22728        34.00288        -1.22119
H         35.09369        35.94656        -0.98987
H         37.52296        12.15154        -1.06987
H         38.73560        14.27852        -1.37476
H         38.64318        29.73410        -1.62248
H         37.55160        31.87899        -0.68171
H         39.97290        16.42611        -1.33541
H         41.19465        18.57935        -1.25719
H         41.15272        25.26871        -0.28523
H         39.94810        27.44631        -0.41954
H         42.39875        20.66438        -0.85755
H         42.41435        23.09650        -0.45971
