         261
 CSIRO Nanostructure Databank - Neutral Graphene Oxide Data Set
C        -11.29470         0.76313         0.03960
C        -10.10112         1.61389         0.18142
C         -8.89306         0.86116         0.62800
C         -7.54301         1.55392         0.74544
C         -6.39222         0.77848         0.02577
C         -5.06091         1.48631        -0.07281
C         -3.77387         0.73854        -0.19524
C         -2.56271         1.43494        -0.80561
C         -1.24517         0.73550        -0.56733
C          0.03578         1.43541        -0.95950
C          1.30004         0.68191        -0.68420
C          2.42003         1.38191         0.01043
C          3.66364         0.59318         0.45786
C          5.00534         1.40759         0.35394
C          6.32239         0.69932         0.37960
C          7.61810         1.47426         0.33760
C          8.91629         0.73336         0.31794
C         10.15542         1.54969        -0.10943
C         11.13921         0.73406        -0.91498
C        -10.12099         2.97457         0.18631
C         -8.90908         3.82782         0.56234
C         -7.65307         2.98035         0.21639
C         -6.38580         3.67380        -0.11336
C         -5.11674         2.93050        -0.47772
C         -3.87393         3.69787        -0.82150
C         -2.57089         2.93187        -1.03041
C         -1.26638         3.71723        -1.12098
C          0.02764         2.95444        -1.01234
C          1.31790         3.65190        -0.64598
C          2.39253         2.86674         0.06926
C          3.71789         3.58126         0.01357
C          5.00820         2.83707        -0.14247
C          6.31792         3.60421        -0.35881
C          7.64215         2.87795        -0.24648
C          8.83491         3.72702         0.12379
C          9.67016         2.87095        -0.80052
C         -8.79102         5.10686        -0.32973
C         -8.07990         6.20840        -0.07587
C         -6.14551         5.01224         0.53439
C         -5.11559         5.90592        -0.08677
C         -3.87984         5.21347        -0.61990
C         -2.55461         5.94911        -0.58408
C         -1.27385         5.22172        -0.90097
C          0.05703         5.92199        -0.62972
C          1.32289         5.13331        -0.43568
C          2.40412         5.74154         0.41958
C          3.72394         4.97888         0.52936
C          4.99860         5.62658         1.00244
C          6.38927         4.91801         1.09607
C          7.58018         5.77359         0.71606
C          8.81031         5.06634         0.34701
C         -7.74933         7.49595         0.05549
C         -6.39160         8.11956         0.27827
C         -5.11712         7.33310         0.36875
C         -3.76947         8.00055         0.48688
C         -2.51036         7.24585         0.20427
C         -1.20052         8.01290         0.35994
C          0.03374         7.33355        -0.16321
C          1.12738         8.02433         0.61276
C          2.37925         7.18839         0.79596
C          3.70529         7.89409         0.80037
C          4.99321         7.13429         0.89555
C          6.26426         7.85680         1.33350
C          7.49548         7.12950         0.80179
C         -6.17295         9.56954         0.01338
C         -4.97549        10.17431         0.12926
C         -3.69688         9.52410         0.63641
C         -2.44064        10.12897        -0.00394
C         -1.22107         9.47566        -0.03556
C          0.05652        10.10224        -0.22143
C          1.28568         9.44868         0.12549
C          2.52051        10.05780         0.27471
C          3.65535         9.39950         1.06102
C          5.02468         9.99437         0.80325
C          6.17509         9.31380         0.92408
C        -11.25642        -0.58855        -0.03817
C         -9.94716        -1.31313        -0.30820
C         -8.87594        -0.62419         0.56834
C         -7.52815        -1.23220         0.90763
C         -6.37936        -0.73182         0.06139
C         -5.09601        -1.52744        -0.16331
C         -3.79671        -0.77728        -0.25952
C         -2.50507        -1.49236         0.03653
C         -1.22435        -0.71905        -0.18662
C          0.05723        -1.52180        -0.19678
C          1.29743        -0.82574        -0.62473
C          2.58998        -1.56024        -0.58323
C          3.81258        -0.82641        -0.13197
C          5.12126        -1.48904        -0.41419
C          6.37893        -0.69921        -0.17385
C          7.64700        -1.47938        -0.11537
C          8.93775        -0.78709         0.27168
C         10.15947        -1.46250        -0.27207
C         11.20368        -0.60870        -0.88365
C         -9.88010        -2.82113        -0.03948
C         -8.80379        -3.61973        -0.28334
C         -7.55818        -3.14347        -0.95926
C         -6.30948        -3.79253        -0.38971
C         -5.10399        -3.03364         0.08330
C         -3.78317        -3.80612         0.32692
C         -2.47906        -2.98841         0.17133
C         -1.22530        -3.70620        -0.32212
C          0.09515        -3.01823        -0.13101
C          1.38738        -3.79891        -0.39003
C          2.69470        -3.06100        -0.43591
C          3.93767        -3.65223        -1.10517
C          5.17832        -2.76467        -1.27265
C          6.68292        -3.18725        -1.70488
C          7.55031        -2.96682        -0.43426
C          8.91212        -3.65118        -0.42153
C         10.07638        -2.90690        -0.57680
C         -8.72185        -5.03869         0.33582
C         -7.51742        -5.91355        -0.06543
C         -6.35441        -5.26635        -0.79511
C         -4.98907        -5.94234        -0.63840
C         -3.74338        -5.16113        -0.36681
C         -2.44112        -5.88795        -0.15635
C         -1.23732        -5.16402        -0.65904
C          0.02119        -5.97778        -0.83686
C          1.33153        -5.20530        -0.92001
C          2.64529        -5.94001        -1.01953
C          3.98215        -5.18026        -1.03221
C          5.25774        -5.84937        -0.58850
C          6.57783        -5.06630        -0.46511
C          7.77946        -5.80317         0.06100
C          8.97089        -5.03726        -0.10712
C         -7.48635        -7.24176         0.19168
C         -6.28752        -8.09987        -0.04172
C         -4.98920        -7.42679        -0.38836
C         -3.77008        -7.99197         0.29051
C         -2.43447        -7.34468         0.06480
C         -1.31965        -8.28202        -0.41271
C          0.00804        -7.48626        -0.67675
C          1.34320        -8.17816        -0.43671
C          2.65461        -7.43382        -0.69576
C          3.91276        -8.01365        -0.06004
C          5.23449        -7.27023        -0.09843
C          6.40304        -7.77046         0.72718
C          7.64181        -6.95792         0.80175
C         -6.20826        -9.46755         0.56293
C         -5.04811       -10.09993         0.84168
C         -3.75861        -9.35549         0.88186
C         -2.41011        -9.98321         1.06765
C         -1.26091        -9.44788         0.58357
C          0.07430       -10.16720         0.66612
C          1.31922        -9.30122         0.55479
C          2.41672        -9.64078         1.27201
C          3.76906        -9.12345         0.96602
C          4.88342        -9.33841         1.91753
C          6.10020        -8.77210         1.77295
O          4.83097        -5.81534        -1.99918
O         -6.09718        -3.55157         1.01888
O          2.28180        -3.69937         0.78709
O          5.68365         1.10401         1.61354
O         -6.81650         0.01251        -1.11449
O          2.10130        -8.34863        -1.66942
O          6.81319        -4.60199        -1.80572
O         -7.33776         3.31677        -1.16865
O          9.86729        -1.34556         1.21218
O          6.24040        -8.12910        -0.70251
O         -4.80371         3.25531        -1.85257
O          1.91278         2.13983         1.19481
O         -0.92042         7.99386         1.81741
O          4.21842        -2.92958        -2.34254
O          6.53894         4.14727         2.10662
O          4.46048        -1.70688         0.86404
O          7.23712        -0.71225        -1.33557
O         -2.71299         1.97381        -2.12751
O          4.11458         5.00463         1.94750
O          0.20526        -2.23411         1.07528
O          8.39961         2.62137        -1.54573
O         -7.37090        -1.82055         1.95860
O         -2.38244        -2.13880         1.34531
O         -3.10559         7.19850         1.53500
O         -4.15525        -5.38883        -1.73637
O         -3.96355        -8.15598         1.73524
O          0.24732         7.07014        -1.54781
O         -1.99146         5.98113        -1.92036
O          1.96034        -1.27944        -1.85967
O         -9.29018         0.04963         1.79738
O          6.62239        -3.82014         0.39687
O         -5.86125         7.65353         1.57325
O         -6.41308         5.11925         1.73158
O         -2.11475        -6.44033         1.16169
O         -0.49333         3.38119        -2.30112
O         -4.47109        -1.25940        -1.45706
O          1.94818        -5.46806        -2.20853
O          4.20113         3.17631        -1.32319
O          8.37580         1.27184         1.56674
O          2.03767         6.15753         1.76680
O         -1.13461         0.34106         0.83469
O          4.48355         7.56640        -0.40652
O         -1.73985        -8.84862        -1.60499
O          1.84402         4.54176        -1.66311
O          0.53951         8.17166         1.96477
O         -5.70468        -8.16445        -1.40775
O         -1.44522        -4.16666        -1.69610
O          4.12113        -9.39402        -0.43447
O         -4.86841         5.81306        -1.51261
O         -0.08715        -6.87307        -1.97643
O          0.89544         1.01655        -2.05323
O         -7.50528        -2.44168        -1.95740
O         -4.18893         1.28213         1.09103
O         -3.79564        -4.21075         1.70882
H         -3.58537        -3.42889         2.26676
O          7.07355        -2.61378        -2.90087
H          6.53437        -3.00406        -3.61972
O         10.86378         1.95149         1.07850
H         10.20692         1.98275         1.81277
O          6.30089         4.39398        -1.47141
H          5.38578         4.39789        -1.85298
O          3.33286         9.61796         2.45669
H          2.45813         9.21386         2.64878
O         -6.70428        -5.31998        -2.19089
H         -5.87353        -5.31846        -2.71779
O          0.16787       -10.96876         1.83418
H         -0.48931       -11.69023         1.77650
O         -8.98948         4.14169         1.94049
H         -8.15214         4.59409         2.20628
O          3.39441         0.37280         1.84263
H          4.11261        -0.18326         2.21867
O         -7.17903         1.65564         2.12851
H         -7.80700         1.09866         2.64683
O          6.33756         7.80968         2.77748
H          6.40788         6.87216         3.05884
O         -8.69874        -4.88208         1.75895
H         -7.91673        -4.33761         2.00099
O         -3.57191         9.84298         2.04059
H         -3.13518         9.07553         2.47703
O         -9.69899        -0.99577        -1.68374
H         -8.88577        -1.45168        -2.01849
H         12.00053        -1.12637        -1.43944
H         11.92771         1.29513        -1.43987
H         10.44824         3.36060        -1.42883
H          9.73593         5.65593         0.25406
H          8.39720         7.73403         0.60716
H          7.12730         9.83837         0.74651
H          5.05876        11.06087         0.53011
H          2.62680        11.12464         0.01996
H          0.08422        11.16816        -0.49462
H         -2.46515        11.21396        -0.19572
H         -4.90964        11.25252        -0.08471
H         -7.03897        10.15874        -0.32640
H         -8.57838         8.18513         0.31505
H         -9.12329         4.96160        -1.37616
H        -11.06336         3.49720        -0.04104
H        -12.27100         1.27046         0.08755
H        -12.19653        -1.15885        -0.08338
H        -10.72048        -3.26144         0.52547
H         -9.66396        -5.59160         0.08711
H         -8.34468        -7.71628         0.69389
H         -7.15784       -10.01777         0.65525
H         -5.06123       -11.14670         1.18132
H         -2.36912       -10.89823         1.68227
H          0.10711       -10.83974        -0.24751
H          2.33340       -10.45187         2.01172
H          4.70016       -10.01662         2.76453
H          6.88687        -8.97491         2.51510
H          8.51161        -7.38636         1.32419
H          9.95146        -5.49132         0.09998
H         11.03293        -3.44679        -0.67067
