         424
 CSIRO Nanostructure Databank - Neutral Graphene Oxide Data Set
C          1.43536         3.61473         2.10593
C          0.28338         4.24391         1.76130
C          1.37926         6.44833         1.68019
C          0.22923         5.66349         1.60717
C          1.35338         7.88905         1.46663
C          0.16152         8.57398         1.16815
C          1.25688        10.75319         1.20292
C          0.13044         9.95932         0.97538
C          1.25587        12.18324         1.01061
C          0.03919        12.87788         0.88637
C          1.20598        14.93433         0.34123
C          0.01854        14.23024         0.56383
C          1.09696        16.37051        -0.09557
C          0.20103        17.16711         0.82876
C          1.27141        19.27009         0.17603
C          0.27126        18.52345         0.87719
C          1.27957        20.67713         0.14969
C          0.15822        21.44639         0.60257
C          1.25955        23.53672        -0.01348
C          0.14322        22.81358         0.50619
C          1.20128        24.96488        -0.23333
C          0.06952        25.74657         0.12810
C          1.01231        27.74644        -0.88208
C          0.00990        27.11202        -0.10882
C          1.09172        29.20705        -1.05560
C         -0.08951        29.97832        -1.09185
C          1.16516        32.07732        -1.10251
C         -0.05766        31.36524        -1.12585
C          1.19691        33.54793        -1.03585
C          0.00497        34.30883        -0.93123
C          1.25959        36.38105        -0.65720
C          0.03442        35.68510        -0.76714
C          1.30775        37.80447        -0.46806
C          3.91067         3.68374         1.89846
C          2.68772         4.38798         2.39495
C          3.84191         6.54154         1.78912
C          2.64709         5.82430         1.92707
C          3.82360         7.98049         1.64074
C          2.56834         8.62642         1.57975
C          3.83104        10.87996         1.44412
C          2.49329        10.08793         1.60786
C          3.74787        12.24082         0.90763
C          2.49011        12.89765         0.82674
C          3.68054        14.97030         0.14986
C          2.45448        14.27927         0.45280
C          3.62226        16.39015        -0.18664
C          2.42662        17.06438        -0.24220
C          3.66061        19.24005        -0.56663
C          2.33550        18.52677        -0.60556
C          3.64497        20.66968        -0.57181
C          2.44499        21.39107        -0.31587
C          3.62849        23.54307        -0.72991
C          2.42792        22.82271        -0.37587
C          3.59252        24.95191        -0.99475
C          2.28474        25.60417        -0.90352
C          3.85646        28.01010        -1.52303
C          2.03026        26.91336        -1.37386
C          3.63099        29.21341        -0.94000
C          2.33688        29.89978        -1.04735
C          3.67697        31.99019        -1.14292
C          2.35761        31.31752        -1.05654
C          3.69923        33.53399        -1.16257
C          2.42695        34.24381        -0.98015
C          3.73269        36.33538        -0.61860
C          2.47484        35.64649        -0.74686
C          3.75237        37.75568        -0.42580
C          2.50109        38.46410        -0.36708
C          6.25743         3.69539         1.26040
C          5.07730         4.38545         1.63639
C          6.30042         6.54101         1.52489
C          5.10319         5.84382         1.70243
C          6.31029         7.99331         1.43895
C          5.05277         8.70677         1.47410
C          6.25622        10.81215         0.92479
C          5.06292        10.10750         1.27236
C          6.19112        12.19187         0.61076
C          4.94475        12.89353         0.52828
C          6.12828        14.95664        -0.28186
C          4.90528        14.28656         0.15669
C          6.05472        16.36697        -0.61330
C          4.87181        17.07471        -0.50191
C          6.10596        19.23571        -0.76195
C          4.85282        18.52329        -0.66252
C          6.08447        20.66086        -0.73730
C          4.88264        21.37766        -0.69084
C          6.06251        23.54266        -0.92480
C          4.85849        22.83009        -0.77471
C          6.05555        24.94633        -1.04818
C          4.82817        25.64913        -1.15330
C          5.97365        27.67215        -0.26580
C          5.06656        27.14653        -1.39640
C          6.05688        29.16963        -0.30842
C          4.75350        29.91210        -0.18275
C          6.10937        32.00793        -0.61060
C          4.88458        31.32811        -0.67502
C          6.13807        33.45507        -0.69216
C          4.95311        34.20025        -0.80187
C          6.20520        36.30335        -0.47055
C          4.95736        35.61655        -0.62694
C          6.21111        37.73801        -0.29230
C          4.97462        38.42894        -0.27391
C          8.63574         3.67469         0.72747
C          7.46629         4.38245         1.06197
C          8.74628         6.48527         1.15652
C          7.52434         5.81636         1.25676
C          8.79530         7.92938         1.61479
C          7.51478         8.68007         1.26415
C          8.71051        10.73658         0.58246
C          7.52709        10.08952         0.94391
C          8.72764        12.18688         0.32280
C          7.42279        12.94987         0.33419
C          8.54262        14.84862        -1.04413
C          7.33372        14.27387        -0.31884
C          8.57691        16.35391        -0.98740
C          7.26266        17.05998        -1.19570
C          8.58408        19.20069        -0.95543
C          7.32090        18.53136        -0.89544
C          8.62579        20.63227        -0.91173
C          7.37877        21.39951        -0.55821
C          8.62012        23.54319        -1.25769
C          7.32497        22.79658        -1.12310
C          8.58809        24.96509        -0.88158
C          7.33149        25.66620        -0.84656
C          8.46979        27.64796         0.23334
C          7.29207        26.96517        -0.37386
C          8.49779        29.11379        -0.09261
C          7.29085        29.83329        -0.27101
C          8.56329        31.99169        -0.31717
C          7.33327        31.29359        -0.36455
C          8.57927        33.40842        -0.44853
C          7.38803        34.14496        -0.55386
C          8.67533        36.27408        -0.32152
C          7.41450        35.58249        -0.49023
C          8.66909        37.71286        -0.11176
C          7.44103        38.40737        -0.11458
C         11.04242         3.60256         0.32133
C          9.86931         4.33882         0.59518
C         11.18347         6.41273         0.69871
C          9.93398         5.76869         0.81853
C         11.37696         7.85285         1.12027
C         10.08573         8.66709         1.23440
C         11.22314        10.63201         0.01268
C         10.03047        10.06473         0.69976
C         11.13314        11.98374        -0.59598
C          9.86185        12.75688        -0.47049
C         11.07761        14.83956        -1.07013
C          9.88269        14.21885        -0.69832
C         10.95905        16.23910        -1.66825
C          9.75684        17.02274        -1.17273
C         11.05102        19.16141        -1.09221
C          9.79421        18.47147        -1.13030
C         11.06646        20.58427        -0.94493
C          9.83788        21.30832        -0.97624
C         11.06452        23.45816        -0.53639
C          9.94576        22.78835        -1.28796
C         10.99716        24.81063        -0.27576
C          9.77444        25.59168        -0.42978
C         10.99676        27.67933         0.11085
C          9.77167        26.95805        -0.04929
C         11.01927        29.09107         0.15627
C          9.73291        29.84904         0.32699
C         11.03374        31.92814        -0.05153
C          9.81057        31.28157        -0.11277
C         11.06498        33.43159         0.02265
C          9.88921        34.10922        -0.68893
C         11.14466        36.24086        -0.12740
C          9.87720        35.57693        -0.34293
C         11.12797        37.68774         0.09674
C          9.89898        38.37709         0.08558
C         13.48748         3.51297        -0.00590
C         12.28944         4.24134         0.22928
C         13.59875         6.33933         0.22678
C         12.33805         5.67207         0.38126
C         13.60888         7.78207         0.06081
C         12.46213         8.52448         0.29218
C         13.52209        10.47112        -0.95422
C         12.37593         9.90255        -0.13130
C         13.56159        11.98386        -0.99244
C         12.39038        12.71885        -0.91377
C         13.51206        14.77445        -1.87870
C         12.31686        14.13368        -1.17666
C         13.56292        16.31378        -1.79922
C         12.26530        17.04867        -1.65564
C         13.51875        19.12662        -0.94688
C         12.28080        18.45865        -1.18546
C         13.50875        20.54440        -0.65341
C         12.29590        21.27711        -0.70923
C         13.48398        23.32501        -0.03991
C         12.28877        22.69130        -0.40338
C         13.47093        24.73710         0.38123
C         12.16725        25.50128         0.29163
C         13.45442        27.63616         0.32313
C         12.23224        26.96476         0.20078
C         13.47728        29.06561         0.34200
C         12.24530        29.79147         0.23316
C         13.49857        31.92705         0.35362
C         12.26105        31.22085         0.18303
C         13.56040        33.33883         0.25843
C         12.40008        34.06236        -0.38982
C         13.66320        36.26113        -0.09079
C         12.34200        35.54406        -0.09570
C         13.57499        37.68210         0.41414
C         12.33706        38.35649         0.37650
C         15.92065         3.43611        -0.43150
C         14.72947         4.15758        -0.06823
C         16.04833         6.29434         0.01638
C         14.76562         5.58676         0.08995
C         16.05296         7.74268        -0.19005
C         14.85686         8.44956        -0.29020
C         16.07713        10.54734        -0.72871
C         14.84808         9.84352        -0.58562
C         16.08877        11.95365        -1.03353
C         14.82636        12.60384        -1.56025
C         15.98721        14.82092        -1.20375
C         14.81178        14.11098        -1.47995
C         15.98748        16.20555        -0.98779
C         14.89607        17.05488        -1.57057
C         15.96483        19.08308        -0.56539
C         14.75528        18.42193        -0.92881
C         15.96011        20.50396        -0.32640
C         14.73594        21.22341        -0.37244
C         15.94526        23.30231         0.20794
C         14.73123        22.62568        -0.07188
C         15.95870        24.73154         0.71016
C         14.71958        25.50736         0.36926
C         15.93962        27.63838         0.42558
C         14.70871        26.89963         0.38089
C         15.93568        29.02548         0.59756
C         14.69624        29.76003         0.53850
C         15.92360        31.87454         0.85560
C         14.70714        31.18514         0.60111
C         15.93419        33.29696         0.91738
C         14.75207        34.03673         0.56187
C         15.94611        36.14023         0.95967
C         14.79437        35.46737         0.53926
C         15.95130        37.59238         1.05645
C         14.73931        38.31536         0.83595
C         18.28985         3.40310        -1.18250
C         17.12482         4.07041        -0.70621
C         18.30507         6.27915        -1.22098
C         17.26541         5.52076        -0.42656
C         18.50908         7.69823        -0.76394
C         17.37204         8.44691        -0.10544
C         18.54145        10.54159        -0.74717
C         17.30985         9.87281        -0.56166
C         18.53571        11.96086        -0.86361
C         17.28396        12.64702        -0.99185
C         18.52549        14.82406        -0.85249
C         17.31317        14.09940        -1.38151
C         18.47469        16.18738        -0.53464
C         17.14333        16.86151        -0.28446
C         18.39408        19.04452        -0.11942
C         17.18317        18.36518        -0.42009
C         18.40180        20.47000         0.04799
C         17.17402        21.18835        -0.04246
C         18.41072        23.30669         0.36765
C         17.16471        22.60256         0.18820
C         18.40756        24.76695         0.33478
C         17.23709        25.45629         0.38571
C         18.45312        27.62553         0.63152
C         17.22684        26.93718         0.07793
C         18.40114        29.00625         0.97002
C         17.16614        29.73884         0.85188
C         18.35052        31.83225         1.40551
C         17.14656        31.13448         1.04184
C         18.33433        33.25537         1.55055
C         17.12990        33.99009         1.26425
C         18.30883        36.10852         1.72546
C         17.12723        35.40892         1.32936
C         18.29576        37.53953         1.79573
C         17.10609        38.25063         1.47071
C         19.47971         4.08699        -1.44451
C         20.78238         6.20519        -1.59517
C         19.58003         5.48956        -1.37756
C         20.83856         7.58226        -1.47098
C         19.70333         8.34718        -1.01348
C         20.96175        10.52685        -0.96944
C         19.77261         9.80623        -0.85425
C         20.96447        11.92974        -0.96186
C         19.77395        12.66677        -0.91775
C         20.93848        14.84031        -0.53346
C         19.75714        14.12442        -0.80938
C         20.89933        16.20396        -0.29872
C         19.66950        16.89544        -0.24922
C         20.78855        19.02737         0.38656
C         19.62514        18.32413         0.02746
C         20.79092        20.40692         0.54356
C         19.61274        21.16180         0.35902
C         20.84802        23.35738         0.61464
C         19.61137        22.60388         0.45524
C         20.90339        24.69791         0.47800
C         19.70320        25.51583         0.07973
C         20.82060        27.58557         1.12148
C         19.66082        26.92258         0.66442
C         20.78116        28.92307         1.48125
C         19.58759        29.67685         1.38117
C         20.70506        31.81859         2.04159
C         19.55270        31.10521         1.62553
C         20.68342        33.19015         2.20033
C         19.51274        33.94641         1.94088
C         20.63884        36.12540         2.45125
C         19.50109        35.39467         2.05048
C         20.61393        37.52036         2.52674
C         19.46092        38.22773         2.20129
O         10.31424         9.78822         2.16166
O          7.84786        23.10478        -2.44999
O         17.11620         5.85379         0.97597
O          8.37589        12.99859         1.49314
O          3.81935        32.74840        -2.39318
O          3.17811        10.70863         2.73981
O         12.63530        24.97084         1.58829
O         10.14330        11.99743        -1.70538
O          2.87437        27.45138        -2.36578
O         12.93149        16.92246        -2.97877
O          0.44163        16.35701        -1.40439
H          0.63033        17.23282        -1.82618
O          8.26012        27.54619         1.73656
H          7.29146        27.66064         1.88580
O         17.71437         6.37006        -2.57406
H         18.39220         6.76636        -3.16212
O         10.08317        34.00476        -2.14696
H          9.32832        34.46025        -2.57726
O          2.81664         4.43337         3.87474
H          3.60742         4.97878         4.07626
O         14.81702        12.25607        -3.00510
H         14.14134        12.86690        -3.41052
O          7.05648        16.96220        -2.66190
H          7.29800        16.03136        -2.90650
O         17.32083        27.03347        -1.38735
H         18.21465        26.68255        -1.63590
O          4.38529        29.96684         1.23713
H          4.52268        29.05868         1.59272
O         16.88106        16.63110         1.16329
H         17.63660        17.01375         1.65942
O         19.80462        25.72155        -1.37911
H         19.86256        24.83477        -1.79487
O          9.56021        29.94574         1.80619
H          9.22345        29.05804         2.10515
O         17.68737         8.50272         1.34029
H         17.67075         7.56494         1.65360
O         13.32042        14.45534        -3.32176
H         13.83299        15.11884        -3.83456
O         10.61859        15.96955        -3.06817
H         11.46588        15.72623        -3.51572
O          1.89254        18.58775        -2.02421
H          2.63402        18.25074        -2.57258
O          8.32472        14.51062        -2.46876
H          9.13959        14.82885        -2.94330
O         13.29536        10.02326        -2.33632
H         13.86682        10.60085        -2.90297
O         10.39823        22.82882        -2.67959
H          9.59548        22.69185        -3.23443
O         10.93910        33.73628         1.43950
H         10.24669        33.15493         1.81982
O         14.02444        36.36306        -1.51835
H         13.81779        35.48058        -1.91784
O         11.91967         7.76514         2.47282
H         11.74630         8.63716         2.89604
O         17.48254        14.08603        -2.84289
H         16.77790        13.50309        -3.20673
O         15.41025        17.36259        -2.91789
H         14.64375        17.72961        -3.41874
O         12.67409        33.91810        -1.81685
H         11.81905        34.04381        -2.30123
O          8.79784         7.85178         3.07254
H          9.10893         8.72943         3.39244
O          7.48495        21.64501         0.89685
H          7.45828        20.77417         1.34761
O          5.36485        27.31460         1.02441
H          5.24343        26.33866         1.03172
O         15.92420        24.62985         2.18398
H         15.00934        24.38049         2.44055
O          5.81263        27.27471        -2.63238
H          5.19918        27.06702        -3.36862
H          1.46423         2.52272         2.23372
H         -0.63619         3.66414         1.59424
H         -0.74375         6.11922         1.38116
H         -0.77402         8.01450         1.03821
H         -0.81604        10.42082         0.66278
H         -0.91257        12.35287         1.04161
H         -0.94610        14.74190         0.44476
H         -0.57736        16.64204         1.40160
H         -0.44587        19.06684         1.51057
H         -0.73555        20.93199         0.98003
H         -0.75896        23.35553         0.81926
H         -0.75935        25.27671         0.67346
H         -0.82941        27.69866         0.29030
H         -1.06228        29.46631        -1.10762
H         -1.01214        31.90613        -1.17054
H         -0.97220        33.81044        -0.98109
H         -0.90889        36.24666        -0.70316
H          0.35998        38.35962        -0.41045
H          3.91657         2.58410         1.85274
H          2.52177        39.55454        -0.22470
H          6.23029         2.60108         1.15256
H          4.97332        39.51848        -0.11999
H          8.58933         2.58362         0.59544
H          7.44190        39.49794         0.03237
H         10.97608         2.51069         0.20485
H          9.89750        39.46637         0.24385
H         13.43059         2.42406        -0.15175
H         12.30446        39.42377         0.64623
H         15.83412         2.35231        -0.60309
H         14.71625        39.38916         1.07938
H         18.26150         2.30947        -1.29545
H         17.10378        39.34797         1.55433
H         20.37648         3.50772        -1.71307
H         21.69618         5.64502        -1.84518
H         21.79160         8.09437        -1.66004
H         21.92320        10.00213        -1.05553
H         21.93169        12.44610        -1.02750
H         21.90719        14.32436        -0.50365
H         21.84438        16.73273        -0.12111
H         21.73265        18.48962         0.54224
H         21.73203        20.90080         0.81735
H         21.77692        22.81219         0.83363
H         21.87940        25.19877         0.54995
H         21.77994        27.05377         1.17630
H         21.71199        29.40326         1.81124
H         21.64223        31.28214         2.24104
H         21.60528        33.69472         2.51867
H         21.56914        35.60398         2.71280
H         21.51690        38.06095         2.84338
H         19.44774        39.32558         2.25753
