         424
 CSIRO Nanostructure Databank - Neutral Graphene Oxide Data Set
C          1.50166         3.71042        -2.52553
C          0.29872         4.44985        -2.60368
C          1.59878         6.56904        -2.82566
C          0.30146         5.82166        -2.65591
C          1.53287         8.00839        -2.37980
C          0.39800         8.78804        -2.78108
C          1.22853        10.71779        -1.44666
C          0.26724        10.09134        -2.42249
C          1.28752        12.23783        -1.61729
C         -0.02632        12.87706        -1.23680
C          1.09288        14.90910        -0.46263
C         -0.09835        14.13936        -0.76244
C          1.00791        16.31843        -0.16634
C         -0.19676        17.07927        -0.01585
C          1.00120        19.21466         0.21516
C         -0.20515        18.44638         0.24158
C          1.16598        20.62963         0.54780
C          0.03456        21.45192         0.41458
C          1.25391        23.56994         0.74132
C          0.07429        22.84503         0.45504
C          1.36314        24.96021         0.52226
C          0.31068        25.72639        -0.10284
C          1.52819        27.88515         0.27022
C          0.37801        27.07207        -0.24028
C          1.10212        29.04435         1.21697
C         -0.09559        29.81751         0.74633
C          1.18781        31.90452         0.46838
C         -0.05080        31.13602         0.47754
C          1.15216        33.29428         0.05852
C          0.00003        34.04801         0.07383
C          1.17833        36.11533        -0.50138
C          0.00134        35.44144        -0.22557
C          1.21410        37.56511        -0.61854
C          3.90859         3.65076        -1.97666
C          2.73252         4.37618        -2.27772
C          3.88917         6.48071        -1.75503
C          2.75866         5.80931        -2.23593
C          3.86146         7.91304        -1.53320
C          2.63790         8.64448        -1.77536
C          3.72994        10.73472        -1.03890
C          2.58363        10.04236        -1.46597
C          3.67955        12.15892        -0.74884
C          2.46111        12.87903        -0.90411
C          3.53515        14.88536         0.08551
C          2.34604        14.22661        -0.50281
C          3.48924        16.37679         0.18486
C          2.22089        17.06394        -0.12633
C          3.87057        19.40140         0.79062
C          2.13163        18.45356        -0.14702
C          3.72383        20.64890         1.33964
C          2.39694        21.29572         1.12725
C          3.69829        23.51641         1.49897
C          2.38977        22.81954         1.31700
C          3.70914        24.92126         1.42134
C          2.53046        25.67176         0.98992
C          3.61704        27.71653         1.86336
C          2.56767        27.05433         0.97975
C          3.61037        29.25404         1.79284
C          2.33491        29.93886         1.42189
C          3.66686        31.99825         0.73446
C          2.38404        31.30681         0.84167
C          3.68500        33.31431         0.16539
C          2.43315        33.88616        -0.45889
C          3.62325        36.06080        -0.70007
C          2.43040        35.39383        -0.51647
C          3.59964        37.44976        -1.29582
C          2.35717        38.21632        -0.91866
C          6.28637         3.59358        -1.31199
C          5.08876         4.31296        -1.59080
C          6.23705         6.41569        -0.98542
C          5.07279         5.74048        -1.43674
C          6.20370         7.83370        -0.75185
C          4.98287         8.57388        -1.01640
C          6.09143        10.66987        -0.31842
C          4.94765         9.99937        -0.79979
C          6.06321        12.06776        -0.14443
C          4.87599        12.80839        -0.29609
C          6.01249        14.91001         0.41116
C          4.87049        14.22582         0.05909
C          6.06723        16.42646         0.45452
C          4.71438        17.06502         0.64362
C          6.36207        19.26507         1.92864
C          4.58300        18.27497         1.28338
C          6.21873        20.63834         1.85823
C          4.86368        21.32572         2.13076
C          6.14563        23.48347         1.61132
C          4.90838        22.80160         1.71820
C          6.16386        24.91228         1.53517
C          4.94080        25.63008         1.56600
C          6.14427        27.75728         1.47834
C          4.95415        27.06000         1.60301
C          6.11426        29.24082         1.19266
C          4.93352        30.02711         1.79539
C          6.13601        32.05067         0.89132
C          4.87935        31.38620         1.10455
C          6.13440        33.42746         0.42380
C          4.88393        34.03534         0.04677
C          6.07707        36.13093        -0.48361
C          4.88158        35.40257        -0.42645
C          6.05959        37.55507        -0.81317
C          4.87052        38.20581        -1.09154
C          8.66430         3.54235        -0.64830
C          7.44429         4.25155        -0.89602
C          8.60273         6.36051        -0.30567
C          7.42688         5.68263        -0.72295
C          8.56928         7.76973        -0.08662
C          7.34400         8.47499        -0.26131
C          8.58324        10.59524         0.20166
C          7.25433         9.88246         0.25438
C          8.57899        12.06711        -0.07495
C          7.29502        12.72962         0.43416
C          8.50907        14.86197         1.00652
C          7.35497        14.24846         0.18981
C          8.54392        16.37810         0.94278
C          7.33001        17.07866         1.08736
C          8.65789        19.18791         1.24449
C          7.43514        18.48356         1.39175
C          8.63774        20.62918         1.28411
C          7.41263        21.35348         1.50600
C          8.61911        23.48082         1.28265
C          7.40179        22.77089         1.48924
C          8.62753        24.91258         1.28501
C          7.39336        25.63527         1.41945
C          8.62407        27.76908         1.13120
C          7.38461        27.05164         1.35108
C          8.63819        29.18014         1.01674
C          7.44134        29.95105         1.52070
C          8.61648        32.03924         0.78190
C          7.37338        31.37563         1.01648
C          8.62266        33.54966         0.81144
C          7.32826        34.14985         0.31107
C          8.54116        36.20972        -0.33129
C          7.32390        35.49838        -0.15470
C          8.52230        37.60586        -0.69414
C          7.29188        38.26758        -0.84856
C         11.06411         3.49407        -0.11349
C          9.82001         4.19639        -0.24828
C         10.97436         6.32043         0.32699
C          9.81133         5.63800        -0.05414
C         10.98599         7.74477         0.40216
C          9.77507         8.45807         0.24528
C         11.03843        10.61928         0.39793
C          9.77465         9.90843         0.29628
C         11.06536        12.04174         0.39220
C          9.82729        12.80575         0.34950
C         11.03592        14.91279         0.71312
C          9.80741        14.16535         0.62337
C         11.03529        16.27527         0.94209
C          9.80340        17.03454         1.03975
C         11.10328        19.17863         0.95102
C          9.85943        18.45715         1.07515
C         11.08738        20.60629         0.86824
C          9.84238        21.33298         1.03733
C         11.04754        23.48359         0.84551
C          9.83302        22.76157         1.03826
C         11.05401        24.86916         0.96080
C          9.84800        25.61541         1.14057
C         11.06337        27.78255         0.83954
C          9.85456        27.05448         1.06123
C         11.04907        29.15812         0.61271
C          9.83089        29.88410         0.75541
C         11.12169        32.08979         0.80575
C          9.81478        31.33273         0.71530
C         11.05209        33.47219         0.19304
C          9.84818        34.15720         0.16715
C         10.99803        36.20786        -0.55734
C          9.80095        35.53160        -0.23448
C         10.97866        37.62073        -0.87663
C          9.74150        38.29308        -0.91102
C         13.47664         3.46407         0.24994
C         12.23135         4.13798         0.26037
C         13.46974         6.30377         0.70666
C         12.17153         5.54499         0.81522
C         13.45725         7.72825         0.68971
C         12.23181         8.45511         0.57400
C         13.49998        10.58883         0.63242
C         12.25475         9.88555         0.54152
C         13.51675        12.01755         0.58255
C         12.29691        12.72507         0.49842
C         13.57177        14.90414         0.63593
C         12.29316        14.21058         0.25355
C         13.57553        16.28169         0.78995
C         12.32724        17.00389         1.23533
C         13.54021        19.16451         0.72392
C         12.32106        18.47313         0.88609
C         13.52896        20.58897         0.60354
C         12.30581        21.29369         0.67657
C         13.58096        23.47813         0.64777
C         12.28170        22.76527         0.34495
C         13.59167        24.83894         0.78800
C         12.34142        25.58109         1.02586
C         13.62602        27.77036         0.63400
C         12.35904        27.08019         0.98226
C         13.58791        29.13845         0.32218
C         12.27528        29.84573         0.06445
C         13.52481        31.99556         0.10637
C         12.34699        31.32549         0.35147
C         13.51960        33.44708        -0.07218
C         12.27188        34.13396        -0.15525
C         13.45382        36.18661        -0.83910
C         12.24032        35.51056        -0.52535
C         13.42647        37.60014        -1.22482
C         12.18374        38.28877        -1.17006
C         15.91634         3.44562         0.40553
C         14.68014         4.13739         0.48686
C         15.92698         6.24136         0.85241
C         14.68919         5.57773         0.70082
C         15.91712         7.69586         1.08995
C         14.68951         8.45047         0.79466
C         15.99379        10.56846         0.75015
C         14.72709         9.85784         0.75966
C         15.99670        12.00351         0.62013
C         14.77644        12.72765         0.59045
C         16.03098        14.86463         0.63490
C         14.80005        14.16361         0.59516
C         16.03561        16.30392         0.62550
C         14.80393        17.01360         0.71626
C         16.00239        19.14039         0.42762
C         14.79341        18.44107         0.65356
C         15.99604        20.57819         0.33116
C         14.78014        21.30045         0.45927
C         16.05713        23.39592         0.54148
C         14.81591        22.72366         0.55196
C         16.13688        24.83095         0.90128
C         14.84594        25.60132         0.98472
C         16.06809        27.72375         0.37026
C         14.84959        27.06495         0.69683
C         16.04070        29.13349         0.09738
C         14.79963        29.83988         0.10163
C         15.99552        31.95737        -0.21086
C         14.78600        31.26904        -0.06282
C         16.00696        33.43585        -0.14943
C         14.71533        34.14945        -0.30194
C         15.91941        36.27105        -0.96736
C         14.67521        35.50792        -0.70321
C         15.80946        37.42011        -1.94869
C         14.58001        38.23042        -1.67576
C         18.37023         3.40676         0.28941
C         17.13496         4.11397         0.47870
C         18.40378         6.21899         0.70478
C         17.16548         5.54307         0.71402
C         18.55082         7.65947         1.16139
C         17.23473         8.44368         1.16768
C         18.45783        10.55049         0.56925
C         17.21841         9.87611         0.80960
C         18.46652        11.97517         0.45903
C         17.24059        12.70394         0.54643
C         18.49738        14.82527         0.45392
C         17.26699        14.13486         0.55409
C         18.55825        16.30992         0.71962
C         17.25178        17.02788         0.51949
C         18.46893        19.14177         0.06953
C         17.24157        18.42538         0.36223
C         18.43848        20.54608        -0.13444
C         17.20930        21.28077         0.09028
C         18.42876        23.43749        -0.17885
C         17.23117        22.69791         0.16212
C         18.50829        24.80730        -0.01012
C         17.46435        25.57757         0.76987
C         18.48157        27.68127        -0.11036
C         17.31292        27.01374         0.27814
C         18.47580        29.10761        -0.32028
C         17.25031        29.83815        -0.18684
C         18.45815        31.95556        -0.65520
C         17.23774        31.25783        -0.32811
C         18.48442        33.37121        -0.83460
C         17.30431        34.16185        -0.41907
C         18.41094        36.19253        -1.52332
C         17.25479        35.60422        -0.82281
C         18.32046        37.56502        -1.94617
C         17.07759        38.21200        -2.02662
C         19.55512         4.08197         0.22176
C         20.78963         6.22090         0.14209
C         19.59614         5.50833         0.38776
C         20.80078         7.62261         0.10110
C         19.69164         8.37915         0.47814
C         20.87268        10.53855         0.17376
C         19.67931         9.81641         0.41746
C         20.88551        11.91969         0.11660
C         19.69780        12.67152         0.26372
C         20.89649        14.84791        -0.01592
C         19.70825        14.11707         0.24682
C         20.88186        16.23886        -0.16385
C         19.73459        16.99597         0.07401
C         20.83626        19.14214        -0.52576
C         19.69130        18.42460        -0.12013
C         20.78511        20.51304        -0.75658
C         19.60206        21.23448        -0.56206
C         20.80465        23.43324        -0.96526
C         19.49591        22.69425        -0.95640
C         20.86887        24.76336        -0.74159
C         19.70464        25.53093        -0.35240
C         20.90463        27.67966        -0.60335
C         19.71513        26.94050        -0.31878
C         20.88597        29.03949        -0.75852
C         19.67014        29.78661        -0.65653
C         20.80684        31.89532        -1.33745
C         19.65405        31.20957        -0.87874
C         20.78412        33.25065        -1.59289
C         19.62486        34.02514        -1.34136
C         20.75550        36.14316        -2.12374
C         19.60809        35.46556        -1.65452
C         20.70797        37.51058        -2.43747
C         19.52178        38.22030        -2.35930
O          2.75382        29.86979         2.83313
O          5.33537        18.48231         2.44459
O         12.44795        26.38065         2.27204
O         16.49263         8.13972         2.39711
O         15.53769        25.15057         2.21035
O          3.26184        19.20066        -0.45755
O          3.21074        15.46197         1.39473
O         16.72631        36.51671         0.21336
O         16.86690        33.92172         0.95256
O          2.02318        21.94109         2.42699
O          7.67262        14.54412        -1.20249
H          7.98013        13.71936        -1.65985
O          7.71649        29.99943         2.94272
H          6.93312        30.39112         3.39793
O          4.58502        21.28726         3.54353
H          3.65080        21.58207         3.65366
O          6.29298        16.81048        -0.96582
H          6.90518        16.13174        -1.35466
O          8.55594        12.11997        -1.55846
H          9.44578        11.85084        -1.87295
O          5.92824        29.33472        -0.24995
H          6.68369        28.88248        -0.68203
O          8.73533        33.91259         2.23050
H          9.52619        33.43212         2.57590
O          3.26504        27.34344         3.22189
H          2.34490        27.67340         3.36180
O          7.24542        12.45391         1.85694
H          6.61121        13.07542         2.27406
O         12.17349        22.82144        -1.13014
H         11.38847        22.29117        -1.38529
O          1.48664        12.48677        -3.04511
H          1.50356        13.45754        -3.17864
O          3.49481        37.23865        -2.76332
H          2.64765        36.76738        -2.91912
O         12.40858        16.97772         2.71318
H         13.21752        17.46973         2.97134
O         18.97997         7.56424         2.56082
H         18.15112         7.50709         3.09379
O          0.68421        10.47552        -0.10704
H          0.66517         9.50577         0.03556
O         15.62825        36.76437        -3.27347
H         15.46629        37.47372        -3.93100
O          5.20248        30.29494         3.19379
H          4.32638        30.44847         3.62109
O          2.16418        28.55080        -0.86193
H          2.41434        27.86603        -1.51674
O         18.02528        25.69825         2.11054
H         17.25532        25.77041         2.72391
O         11.95271         5.37286         2.26778
H         11.10398         4.89290         2.37693
O         11.29228        32.32954         2.25752
H         12.17147        32.74728         2.38549
O         19.02812        22.67361        -2.35753
H         18.98475        23.60476        -2.66242
O          6.93895         9.73753         1.68791
H          7.00036        10.64892         2.07421
O         18.81577        16.41878         2.18497
H         19.66924        15.96508         2.35594
O          0.74569        28.41921         2.47051
H          0.64283        29.13204         3.13673
O         12.24598        14.33656        -1.22616
H         13.07676        13.94693        -1.57397
O          1.84166         6.61968        -4.29200
H          1.90410         5.68976        -4.59893
O          2.49582        33.46158        -1.88121
H          3.33993        33.80614        -2.24540
O         12.08222        29.76432        -1.40637
H         12.84089        30.22595        -1.82426
O          8.29649        14.60193         2.42443
H          9.03911        15.01365         2.91521
H          1.47191         2.61199        -2.52218
H         -0.65811         3.90655        -2.60500
H         -0.65024         6.36922        -2.70938
H         -0.34871         8.32631        -3.44321
H         -0.59323        10.67778        -2.77470
H         -0.95161        12.31573        -1.43188
H         -1.08123        14.59260        -0.56774
H         -1.16154        16.55204        -0.01311
H         -1.16414        18.93137         0.47464
H         -0.91413        20.98318         0.11516
H         -0.84096        23.38827         0.18410
H         -0.56313        25.19678        -0.50831
H         -0.42131        27.60822        -0.77307
H         -1.05416        29.27939         0.70440
H         -0.97537        31.64458         0.16984
H         -0.94977        33.60174         0.40139
H         -0.94363        35.99969        -0.16081
H          0.28467        38.12183        -0.42336
H          3.89378         2.55182        -2.02804
H          2.37150        39.31306        -1.00676
H          6.29437         2.50033        -1.43566
H          4.88185        39.28121        -1.32605
H          8.68457         2.45334        -0.80531
H          7.28090        39.33931        -1.09663
H         11.09847         2.42925        -0.39165
H          9.71488        39.36375        -1.16326
H         13.50359         2.39828        -0.02462
H         12.15489        39.35781        -1.42902
H         15.90547         2.35988         0.22686
H         14.55214        39.29468        -1.95560
H         18.33720         2.31592         0.15460
H         17.03607        39.25371        -2.38149
H         20.49570         3.54625         0.02783
H         21.69604         5.66498        -0.13762
H         21.70535         8.11767        -0.27900
H         21.82438        10.00215         0.06680
H         21.84667        12.42679        -0.03796
H         21.83918        14.31914        -0.20469
H         21.80638        16.72445        -0.50575
H         21.79015        18.62200        -0.68255
H         21.69720        21.01409        -1.10582
H         21.71448        22.90619        -1.28375
H         21.83792        25.27080        -0.84469
H         21.86425        27.15506        -0.69813
H         21.83204        29.55616        -0.96408
H         21.73673        31.34555        -1.53069
H         21.69322        33.72689        -1.98175
H         21.71492        35.61858        -2.21869
H         21.62629        38.01570        -2.76875
H         19.48469        39.28085        -2.64601
