         274
 CSIRO Nanostructure Databank - Neutral Graphene Oxide Data Set
C        -11.10073         0.49639         0.62222
C         -9.85026         1.27943         0.48682
C         -8.66698         0.60483        -0.13257
C         -7.48685         1.38093        -0.72118
C         -6.21253         0.66956        -0.20850
C         -4.86232         1.40413        -0.23625
C         -3.77852         0.65231        -1.01564
C         -2.51752         1.44285        -1.37856
C         -1.25076         0.65824        -1.61607
C          0.06125         1.42939        -1.65616
C          1.33298         0.72320        -1.25807
C          2.46726         1.37826        -0.84165
C          3.71182         0.65242        -0.55151
C          4.94421         1.41207        -0.10770
C          6.22156         0.63718        -0.34519
C          7.53187         1.36264        -0.42485
C          8.68831         0.78807         0.36769
C         10.00615         1.45053        -0.18093
C         11.20429         0.64464         0.26732
C         -9.82227         2.73718         0.63877
C         -8.65904         3.46553         0.41145
C         -7.53589         2.92225        -0.43919
C         -6.19620         3.56057        -0.16856
C         -4.98749         2.85488        -0.75638
C         -3.63822         3.61527        -0.52326
C         -2.47875         2.94273        -1.26981
C         -1.18716         3.71740        -1.32559
C          0.07242         2.94167        -1.61015
C          1.47068         3.61069        -1.44569
C          2.42039         2.85940        -0.47920
C          3.77451         3.56307        -0.49082
C          5.00276         2.87583        -0.47402
C          6.22750         3.58223        -0.39429
C          7.57765         2.91523        -0.62692
C          8.73670         3.55587         0.14119
C          9.92139         2.89429         0.27391
C         -8.56782         4.82422         0.79035
C         -7.35867         5.57343         0.65828
C         -6.16513         4.89365         0.12667
C         -5.01780         5.72927        -0.34429
C         -3.78268         5.07751        -0.88631
C         -2.49761         5.84991        -1.11282
C         -1.20970         5.08780        -1.25044
C          0.07350         5.86457        -1.19085
C          1.36492         5.11030        -1.13126
C          2.47354         5.67091        -0.28030
C          3.77895         4.96634        -0.36564
C          4.97985         5.66507        -0.17254
C          6.21941         4.98417        -0.19797
C          7.45462         5.67491         0.19114
C          8.60131         4.96919         0.42711
C         -7.26081         6.88756         1.07448
C         -5.88426         7.46603         1.26570
C         -5.02285         7.21486        -0.00719
C         -3.60459         7.76284         0.19210
C         -2.50064         7.31036        -0.72505
C         -1.21343         8.08071        -0.61787
C          0.08440         7.31405        -0.74342
C          1.26933         7.91654        -0.10868
C          2.39500         7.05647         0.29811
C          3.68142         7.72654         0.72097
C          4.96186         7.06721         0.32201
C          6.18890         7.86894        -0.04453
C          7.45003         7.16604         0.48460
C         -5.84076         8.93796         1.61281
C         -4.71153         9.65463         1.48030
C         -3.46305         9.05285         0.94493
C         -2.25660         9.88474         0.72759
C         -1.18494         9.39958         0.06434
C          0.08898        10.19327        -0.15533
C          1.31833         9.32231         0.10109
C          2.46144         9.94770         0.55540
C          3.66162         9.21541         1.08160
C          4.96751         9.91824         0.76423
C          6.09788         9.31749         0.37464
C        -11.17928        -0.80353         0.29948
C        -10.10223        -1.59954        -0.40680
C         -8.78190        -0.83834        -0.57066
C         -7.48619        -1.58347        -0.52253
C         -6.22230        -0.82837        -0.23331
C         -4.95686        -1.59895        -0.37082
C         -3.75792        -0.84122        -0.86547
C         -2.40229        -1.51706        -0.71800
C         -1.27125        -0.83416        -1.49619
C          0.05658        -1.54451        -1.43433
C          1.34155        -0.76744        -1.30839
C          2.45258        -1.47092        -0.52811
C          3.75389        -0.70876        -0.47947
C          4.91032        -1.46873         0.15824
C          6.23658        -0.76436         0.08042
C          7.44114        -1.45897         0.20491
C          8.75837        -0.76386         0.50458
C          9.93231        -1.41299        -0.27275
C         11.18916        -0.69406         0.17622
C         -9.88654        -2.96486         0.22111
C         -8.71349        -3.65492         0.20806
C         -7.46223        -3.03247        -0.20324
C         -6.26190        -3.70856        -0.21118
C         -4.99944        -2.97628        -0.35702
C         -3.67418        -3.72255        -0.22623
C         -2.51055        -3.02713        -0.93751
C         -1.23650        -3.79619        -1.09134
C          0.02536        -2.98253        -0.98014
C          1.31032        -3.70468        -0.77466
C          2.59937        -2.95025        -1.03324
C          3.76244        -3.70044        -0.41036
C          5.02104        -2.89330        -0.38517
C          6.30136        -3.61862        -0.22211
C          7.50262        -2.86784         0.17084
C          8.74275        -3.59964         0.10573
C          9.92602        -2.92079        -0.04654
C         -8.67629        -5.02850         0.86193
C         -7.43981        -5.84902         0.55356
C         -6.33286        -5.24350        -0.31565
C         -4.96567        -5.82639         0.10789
C         -3.77640        -5.21910        -0.61541
C         -2.44043        -5.94623        -0.29751
C         -1.16396        -5.23585        -0.59804
C          0.16084        -5.76732        -0.00113
C          1.25557        -5.21942        -0.97403
C          2.58851        -5.97575        -0.88174
C          3.83788        -5.19016        -0.54781
C          5.17027        -5.91635        -0.48543
C          6.43754        -5.11873        -0.22363
C          7.43028        -5.70746         0.75105
C          8.55112        -5.09673        -0.07031
C         -7.36529        -7.14654         0.91577
C         -6.20416        -8.00251         0.45744
C         -4.89964        -7.22974         0.62720
C         -3.61253        -7.94375         0.63753
C         -2.41012        -7.01518         0.79851
C         -1.02641        -7.66627         1.00295
C          0.12356        -7.28305         0.10183
C          1.22209        -8.06630        -0.11413
C          2.52732        -7.43181        -0.51712
C          3.78956        -8.10747        -0.03310
C          5.07767        -7.30655         0.07962
C          5.94658        -7.62002         1.30487
C          7.31287        -6.96503         1.23468
C         -6.07809        -9.36307         1.08945
C         -4.88342        -9.98498         1.12805
C         -3.62085        -9.34581         0.72125
C         -2.46736       -10.18226         0.61744
C         -1.28669        -9.82889        -0.09155
C         -0.01648       -10.25722         0.35070
C          1.21387        -9.50205         0.27706
C          2.37077       -10.06561         0.78522
C          3.69771        -9.43004         0.65219
C          4.87493        -9.87798         1.44737
C          5.94981        -9.09567         1.64795
O         -1.49290        -0.22785        -2.77455
O         -4.83649         5.45744        -1.80313
O          0.56432        -3.18183         0.36120
O          5.53955        -7.07491        -1.27690
O          7.59708        -5.27280        -1.21947
O         -6.34602        -0.06850         1.04271
O          8.56505         7.81189        -0.14471
H          9.31166         7.18137        -0.20515
O         -0.82741        -8.25492         2.05502
O          1.99873         5.87280         1.11098
O         -4.91079        -6.02485         1.52749
O         -2.78095         6.92098        -2.08351
O         -3.31741        -3.66778         1.18624
H         -3.65591        -4.47683         1.64827
O          4.87005         1.43369         1.36654
H          3.97845         1.77212         1.60959
O          0.91771        -1.32829        -2.59244
O         -8.11383        -1.22063        -1.80177
O         -2.09235        -3.52580        -2.23401
O         -2.55669        -6.28594         2.04904
H         -2.21708        -6.87226         2.76330
O          4.05248        -9.32898        -0.79774
O          1.90349         2.90424         0.87579
H          2.02011         3.81334         1.23606
O         -6.63455        -5.60443        -1.62588
O          2.68715        -6.98829        -1.91538
O         -1.70695        -6.24806        -1.50627
O         -0.45632         8.13477        -1.85808
O         -7.51228         1.18477        -2.13499
H         -6.72281         1.63943        -2.52178
O          0.11210        10.73091        -1.47957
H          0.01190         9.97238        -2.10242
O          3.56224        -4.51502         0.76485
O         -4.14992        -0.20181        -2.12691
O          2.92175        -2.97055        -2.42801
H          2.21864        -2.48560        -2.92915
O          0.99029         5.80681        -2.35211
O         -2.80259         2.31329        -2.52970
O          4.50673         7.04105         1.72388
O         -5.23671         2.75253        -2.16869
H         -5.32168         3.67091        -2.52158
O          5.83651        -3.09273        -1.55317
O          7.01836         0.69773        -1.58486
O          6.25400         7.84172        -1.48736
H          7.19118         8.02563        -1.72384
O         -7.91740         4.88255        -1.85671
H         -8.87874         5.11086        -1.82925
O          2.16161         3.52040        -2.69727
H          1.65429         4.03580        -3.36225
O         -7.91181         3.45293        -1.85083
O         -3.11119         7.74018         1.57184
O          9.99708         1.42349        -1.61061
H          9.29560         2.05834        -1.94914
O        -10.63417        -1.84627        -1.73581
H         -9.85533        -1.98470        -2.32503
O          2.00777        -1.40041         0.84527
H          2.75930        -1.64157         1.43697
O         -1.44204        -8.98476        -1.13958
H         -0.59275        -8.81996        -1.59650
O          4.57477        -1.61471         1.58082
H          5.38996        -1.85356         2.07131
O         -8.73124         0.68722         1.31466
O          8.47710         1.31611         1.71184
H          7.51559         1.29822         1.91090
O          7.93514         3.12521        -1.96544
O          0.35244        -5.43617         1.37837
H          0.36214        -4.45743         1.50085
O          9.78220        -1.25783        -1.69143
H          8.87475        -1.52437        -1.95035
O          0.08673         2.22625        -2.88284
O          0.75941        -5.39425        -2.31088
H          1.25041        -6.14512        -2.72306
O         -3.25343         3.70754         0.86590
H         -3.50012         2.87160         1.33461
O          3.51448         9.29624         2.53331
H          4.02976         8.54106         2.90107
O          9.02865        -1.09082         1.88909
H          9.00026        -0.23821         2.39126
O         -6.35259        -8.22768        -0.96972
H         -6.50743        -7.33543        -1.40785
O         -2.01614        -1.32183         0.66883
H         -2.47008        -2.00720         1.21954
O         -5.61942         7.93451        -1.09612
H         -5.36317         7.46878        -1.92562
O         -4.06520        -5.35269        -1.99631
H         -3.29474        -5.02268        -2.51552
O         -8.78711        -4.85911         2.28858
H         -7.98583        -4.39505         2.60715
O         -5.34686         6.69942         2.37148
H         -4.42201         7.01279         2.53140
O          5.19131        -6.96758         2.37910
H          5.64507        -7.15255         3.22802
O         -4.37844         1.41948         1.12672
H         -4.94617         0.78313         1.63769
H         12.07157        -1.28845         0.45977
H         12.10962         1.17394         0.60315
H         10.80804         3.40701         0.67992
H          9.48801         5.48865         0.82863
H          7.51489         7.31474         1.60443
H          7.01014         9.91774         0.23197
H          4.98291        10.99549         0.99430
H          2.44014        11.03632         0.71628
H          0.11332        11.05994         0.55203
H         -2.22935        10.89217         1.16990
H         -4.68536        10.71982         1.75540
H         -6.74681         9.41174         2.02060
H         -8.14400         7.41737         1.46280
H         -9.42316         5.29050         1.30417
H        -10.68688         3.23487         1.10576
H        -11.97035         1.00788         1.06352
H        -12.13222        -1.33364         0.45081
H        -10.78606        -3.47002         0.60756
H         -9.58406        -5.60425         0.54692
H         -8.19039        -7.61428         1.47662
H         -6.98687        -9.88791         1.42000
H         -4.81061       -11.02013         1.49557
H         -2.46082       -11.12089         1.19226
H         -0.01189       -11.10681         1.05115
H          2.33241       -11.09164         1.18284
H          4.88211       -10.92294         1.79491
H          6.82060        -9.49503         2.19206
H          8.19043        -7.50860         1.61929
H          9.49502        -5.67149        -0.19939
H         10.85508        -3.48175        -0.23869
