         236
 CSIRO Nanostructure Databank - Neutral Graphene Oxide Data Set
C        -11.15938         0.67754         0.25852
C         -9.93645         1.48610         0.08762
C         -8.61491         0.70433         0.22444
C         -7.44262         1.48921         0.60532
C         -6.20448         0.77577         1.01816
C         -4.93108         1.47297         0.71040
C         -3.60129         0.78997         0.94338
C         -2.53877         1.33616        -0.04881
C         -1.15823         0.80465         0.35135
C          0.04231         1.40161        -0.23422
C          1.25027         0.72571        -0.27776
C          2.46802         1.42517        -0.68664
C          3.72083         0.68196        -0.71220
C          4.95569         1.33589        -0.99322
C          6.17860         0.63627        -0.85600
C          7.47268         1.33977        -0.73750
C          8.59719         0.63830        -0.10121
C          9.85163         1.43712         0.20538
C         10.85501         0.65785         1.01090
C         -9.89209         2.94041         0.29655
C         -8.68947         3.63170         0.33496
C         -7.46435         2.86396         0.56668
C         -6.17087         3.51595         0.91113
C         -4.96792         2.80048         0.40264
C         -3.86292         3.48360        -0.39715
C         -2.51374         2.84621        -0.14408
C         -1.35957         3.50900        -0.40236
C         -0.11118         2.77093        -0.72150
C          1.14256         3.52634        -1.07030
C          2.42299         2.79252        -0.98747
C          3.64075         3.53041        -1.39167
C          4.94707         2.78251        -1.31881
C          6.22018         3.60159        -1.00502
C          7.45476         2.85742        -0.61607
C          8.30926         3.41764         0.46317
C          9.38668         2.67334         0.93538
C         -8.66338         5.09216         0.29572
C         -7.56133         5.87395        -0.05530
C         -6.40046         5.25883        -0.66466
C         -5.04315         5.81306        -0.43996
C         -3.83554         4.98659        -0.26215
C         -2.62293         5.62444        -0.14720
C         -1.45560         4.94463        -0.86120
C         -0.14323         5.70820        -0.93008
C          1.09609         5.01254        -1.02321
C          2.28711         5.72147        -1.30229
C          3.62325         5.04954        -1.51419
C          5.03871         5.83904        -1.36429
C          6.03437         4.98616        -0.58171
C          6.90393         5.49189         0.43281
C          7.92114         4.65271         1.01312
C         -7.43474         7.29185         0.26587
C         -6.23882         7.97193         0.22760
C         -4.97095         7.28644        -0.13803
C         -3.71148         7.77438         0.45091
C         -2.61484         6.93669         0.48769
C         -1.36140         8.02100        -1.18001
C         -0.16091         7.12421        -0.95272
C          1.04407         7.83961        -1.09179
C          2.15496         7.09901        -1.50720
C          4.04372         8.14718        -1.15493
C          4.97796         7.24785        -0.76306
C          6.19140         7.82278        -0.07175
C          6.85160         6.83661         0.83939
C         -6.09390         9.37033         0.59685
C         -4.88951         9.95251         0.81317
C         -3.56873         9.21763         0.85446
C         -2.45785         9.96054         0.10565
C         -1.33501         9.37617        -0.50139
C         -0.09550        10.05170        -0.59274
C          1.16092         9.22219        -0.47645
C          2.49085         9.97190        -0.48639
C          3.75201         9.42461        -0.51512
C          4.88006         9.96768         0.24000
C          5.95400         9.19599         0.51541
C        -11.11567        -0.67869         0.24635
C         -9.87723        -1.44870         0.24802
C         -8.63674        -0.75947         0.42769
C         -7.44854        -1.46934         0.64636
C         -6.20937        -0.73432         1.04131
C         -4.89748        -1.46709         0.97649
C         -3.62114        -0.71603         0.80749
C         -2.44441        -1.37613         0.60294
C         -1.13998        -0.67149         0.63424
C          0.10728        -1.38317         0.39229
C          1.29282        -0.69154         0.09519
C          2.54620        -1.37501         0.05218
C          3.72991        -0.73186        -0.43525
C          4.94305        -1.47165        -0.58982
C          6.17980        -0.78758        -0.65907
C          7.41050        -1.48329        -0.39751
C          8.55407        -0.75536         0.02503
C          9.71609        -1.46323         0.56267
C         10.80491        -0.68267         1.12321
C         -9.88208        -2.84459         0.19398
C         -8.66892        -3.58414         0.23504
C         -7.44003        -2.88766         0.47039
C         -6.21917        -3.63625         0.45053
C         -4.93501        -2.92830         0.67867
C         -3.72588        -3.55303         0.06731
C         -2.42547        -2.77052         0.10096
C         -1.17729        -3.53338         0.07473
C          0.00300        -2.85232         0.72783
C          1.33094        -3.57992         0.63794
C          2.61241        -2.77457         0.51627
C          3.96178        -3.47699         0.47853
C          4.85773        -2.98980        -0.67210
C          6.22021        -3.73056        -0.61852
C          7.55203        -2.96584        -0.67505
C          8.64564        -3.64316         0.15572
C          9.74062        -2.83469         0.61259
C         -8.63947        -4.99816         0.06597
C         -7.43837        -5.71317         0.04304
C         -6.20058        -5.00388         0.21260
C         -4.91021        -5.81843         0.24954
C         -3.65605        -5.00688        -0.02629
C         -2.44933        -5.59659        -0.32946
C         -1.19338        -4.87068        -0.22976
C          0.11855        -5.57019        -0.53160
C          1.34547        -4.98970         0.18324
C          2.52268        -5.68088         0.17639
C          3.79666        -5.01273         0.56057
C          5.03579        -5.81281         0.39602
C          6.26361        -5.13860        -0.11247
C          7.53034        -5.84926         0.21563
C          8.68769        -5.00072         0.37761
C         -7.40485        -7.15988        -0.08448
C         -6.23612        -7.83743        -0.35434
C         -5.02528        -7.00861        -0.73626
C         -3.71387        -7.80448        -0.78854
C         -2.43178        -7.05838        -0.61275
C         -1.20911        -7.82399        -0.24491
C          0.07309        -7.06804        -0.23938
C          1.31938        -7.83636        -0.51544
C          2.60563        -7.08503        -0.32613
C          3.82696        -7.89381        -0.12837
C          5.00634        -7.27085         0.16615
C          6.25723        -8.03339         0.51671
C          7.52175        -7.20545         0.37415
C         -6.13981        -9.26640        -0.33700
C         -4.93727        -9.94102        -0.41896
C         -3.68547        -9.27051        -0.55074
C         -2.45827        -9.94915        -0.50027
C         -1.20074        -9.29404        -0.44290
C          0.04005        -9.97184        -0.44498
C          1.28809        -9.31463        -0.44192
C          2.54200        -9.99007        -0.46924
C          3.76627        -9.32662        -0.34525
C          5.04996       -10.00664        -0.43204
C          6.22715        -9.39368        -0.14359
O          8.02795         2.24147        -1.80376
O         -2.84417         0.90888        -1.33647
O          4.20111        -3.29581        -1.91560
H          4.72710        -3.99691        -2.36791
O          5.56586         5.97466        -2.69821
H          5.47638         5.08982        -3.13112
O         -0.57618        -7.39886         1.02194
O         -1.91549         4.81684        -2.25748
H         -1.19917         4.32284        -2.72716
O          2.04516        -7.30379        -1.68547
O         -5.28773        -6.47059        -2.04362
H         -4.43540        -6.49117        -2.54169
O         -9.14690         1.08390        -1.08611
O          3.16501         7.77887        -2.17147
O         -4.90319         6.82379        -1.54034
O          3.54491         4.22296        -2.70253
O          4.52376        -5.49993         1.74219
O          6.19176        -8.30788         1.96572
H          5.30688        -8.68567         2.15547
O         -6.05608         4.50601         1.63877
O         -1.53014         7.23667         1.25187
H         -1.73231         8.05424         1.77058
O          8.01965        -3.03663        -2.05148
H          7.76130        -3.92562        -2.38855
O         -0.40497        -2.87745         2.13722
H          0.41060        -2.70589         2.66444
O          7.18872         8.02340        -1.14679
H          7.03152         7.32158        -1.82113
O          0.25749         2.98420        -2.13622
O          5.83257         3.24390        -2.36664
O         -4.76651        -2.47589         2.06525
O         -3.28432         1.17964         2.29978
H         -3.84845         0.65445         2.90664
O         -2.14596         7.78077        -2.08017
O          6.19390        -4.84789        -1.57208
O         -6.56840         4.31940        -1.54723
H         -5.68860         3.92863        -1.88051
O          1.14543         8.84624         0.98780
H          1.14179         9.68425         1.49962
O         -4.78366        -6.38922         1.57751
H         -4.74138        -5.65633         2.22760
O         -1.00462         0.34868         1.70593
O          2.07339        -3.16920         1.84258
O         -4.19912         3.22275        -1.80593
H         -3.42345         3.56491        -2.32576
O          0.30632        -5.35066        -1.94706
H          1.04384        -5.93946        -2.24876
O         10.53648         1.79509        -1.03030
H          9.84325         2.12221        -1.65535
O         -2.89740        -7.41635        -1.96131
O         -3.23261        -2.87962        -1.12815
O          4.67379        -3.03850         1.65312
H          4.13313        -3.30076         2.43122
O         -3.11329         9.23718         2.26438
H         -3.04286        10.17503         2.54348
O         -6.32597         0.04865         2.28510
H         11.59820        -1.22837         1.65683
H         11.70073         1.21802         1.43643
H          9.91753         3.00989         1.83839
H          8.54934         5.09222         1.80256
H          7.57392         7.19298         1.58993
H          6.76325         9.60390         1.14077
H          4.78755        10.97155         0.68302
H          2.41044        10.94519         0.03496
H         -0.04095        11.08246        -0.19638
H         -2.32129        10.99781         0.46746
H         -4.85790        11.02518         1.06417
H         -7.01132         9.97359         0.68508
H         -8.34258         7.81546         0.60203
H         -9.56945         5.61314         0.64644
H        -10.84168         3.49753         0.30758
H        -12.12231         1.20000         0.35943
H        -12.05644        -1.24652         0.30761
H        -10.83471        -3.38104         0.07059
H         -9.59026        -5.53252        -0.07953
H         -8.33820        -7.71919         0.08612
H         -7.06356        -9.84300        -0.17579
H         -4.93097       -11.03725        -0.32333
H         -2.47341       -11.05025        -0.46791
H          0.03256       -11.07253        -0.48272
H          2.54253       -11.08738        -0.56021
H          5.05150       -11.04769        -0.79110
H          7.17106        -9.95122        -0.23954
H          8.46898        -7.71870         0.60407
H          9.59148        -5.43755         0.83110
H         10.59676        -3.34273         1.08309
