         620
 CSIRO Nanostructure Databank - Neutral Graphene Oxide Data Set
C         22.99459        27.38185         0.53533
C         22.97989        28.74743         0.37318
C         22.97631        31.66842         0.02206
C         22.99023        33.03624        -0.15449
C         23.02018        35.93053        -0.52351
C         23.02298        37.32288        -0.48449
C         23.05279        40.22352        -0.10447
C         23.07030        41.60046         0.04254
C         23.11080        44.52272         0.36626
C         23.13549        45.88872         0.50967
C         25.43964        24.56178         0.68732
C         24.24733        25.25037         0.69386
C         25.44590        27.36714         0.36618
C         24.22286        26.66195         0.53222
C         25.42635        28.79035         0.21693
C         24.18736        29.48626         0.20892
C         25.40551        31.61402        -0.18307
C         24.17862        30.91868         0.02125
C         25.40323        33.01677        -0.42526
C         24.20121        33.73686        -0.39665
C         25.45602        35.89626        -0.59311
C         24.21517        35.19576        -0.53357
C         25.46296        37.33096        -0.56149
C         24.22514        38.04654        -0.46082
C         25.47147        40.19329        -0.41053
C         24.24000        39.49030        -0.32886
C         25.48499        41.61545        -0.29017
C         24.27456        42.33191        -0.04335
C         25.53282        44.46054         0.03541
C         24.30396        43.77405         0.12011
C         25.56995        45.88990         0.18752
C         24.36177        46.60976         0.41914
C         25.60551        48.70284         0.44298
C         24.40902        48.02156         0.55187
C         27.98366        23.09682         0.68853
C         27.93671        24.51176         0.46196
C         26.68110        25.23392         0.50620
C         27.91813        27.35662         0.19549
C         26.68216        26.64417         0.34171
C         27.91623        28.78250         0.14998
C         26.66076        29.51110         0.11170
C         27.89120        31.65232        -0.10116
C         26.65259        30.90592        -0.08052
C         27.92140        33.00248        -0.38987
C         26.67263        33.69112        -0.89032
C         27.91418        35.86172        -0.69408
C         26.69427        35.18454        -0.66347
C         27.93136        37.31298        -0.74916
C         26.68861        38.03813        -0.65936
C         27.90296        40.18645        -0.81604
C         26.70003        39.47765        -0.64201
C         27.93154        41.60104        -0.66713
C         26.72516        42.31732        -0.40273
C         27.97677        44.41828        -0.35642
C         26.75421        43.73552        -0.23772
C         28.10032        45.87972        -0.02244
C         26.78908        46.60804         0.09067
C         28.09404        48.71323        -0.00161
C         26.82000        48.00329         0.21427
C         28.23087        50.10705         0.29992
C         30.39887        23.01369         0.38958
C         29.16494        22.38657         0.69169
C         30.37108        24.42853         0.02687
C         29.13224        25.20569         0.19560
C         30.37743        27.36666         0.08561
C         29.15445        26.64169         0.13448
C         30.36753        28.78321         0.17008
C         29.13395        29.48249         0.17168
C         30.40631        31.65818         0.04008
C         29.12501        30.96826         0.42615
C         30.41076        33.02588        -0.27560
C         29.16569        33.73287        -0.43040
C         30.40930        35.80478        -0.87040
C         29.16910        35.12395        -0.67616
C         30.36493        37.23898        -1.19138
C         29.12625        37.99477        -0.97397
C         30.42936        40.17951        -0.95510
C         29.13357        39.46842        -1.31386
C         30.42244        41.59112        -0.80259
C         29.17322        42.31113        -0.73610
C         30.42253        44.46138        -0.73247
C         29.17849        43.72058        -0.61663
C         30.41711        45.86710        -0.90188
C         29.07457        46.58458        -0.96947
C         30.31524        48.79923        -1.07484
C         29.15584        48.05037        -0.60238
C         30.43633        50.22073        -0.75250
C         29.36955        50.81659        -0.03579
C         32.87047        20.21829         0.33389
C         31.68556        20.90667         0.29149
C         32.88897        23.05224         0.48482
C         31.64579        22.33090         0.35956
C         32.91534        24.48068         0.48817
C         31.72607        25.17376        -0.01158
C         32.93309        27.38425         0.39793
C         31.67811        26.66654        -0.00630
C         32.80265        28.82161         0.75955
C         31.59116        29.53097         0.35098
C         32.88215        31.64648         0.16622
C         31.62022        30.93587         0.23056
C         32.86321        33.00623        -0.28985
C         31.66390        33.71252        -0.49030
C         32.88666        35.87555        -0.86561
C         31.65115        35.12955        -0.80975
C         32.91678        37.27500        -0.88346
C         31.68707        38.02154        -1.18100
C         32.87655        40.16852        -0.74479
C         31.64745        39.48128        -0.94644
C         32.86273        41.57680        -0.60910
C         31.65118        42.30322        -0.66268
C         32.86315        44.49423        -0.75102
C         31.65460        43.75748        -0.68935
C         32.87361        45.88794        -0.98506
C         31.62417        46.56005        -1.08516
C         32.89767        48.72956        -1.38198
C         31.62341        48.00222        -1.37001
C         32.81737        50.19964        -1.56610
C         31.60811        50.93136        -1.14978
C         32.86516        53.04914        -1.06690
C         31.66485        52.33779        -1.08321
C         35.39540        18.77189         0.61879
C         35.35784        20.18019         0.68060
C         34.10537        20.90088         0.55878
C         35.30902        22.99123         1.12648
C         34.09044        22.30217         0.65911
C         35.26999        24.47211         1.37441
C         34.07575        25.22739         0.89741
C         35.36917        27.36113         1.03371
C         34.12684        26.62231         0.83933
C         35.37555        28.81619         0.86497
C         34.11347        29.59233         0.87347
C         35.36870        31.67108         0.27575
C         34.10397        30.99304         0.44398
C         35.38827        32.98236        -0.17186
C         34.15130        33.64530        -0.59513
C         35.42423        35.88590        -0.60184
C         34.17032        35.14243        -0.87147
C         35.39206        37.31849        -0.58536
C         34.14457        38.02149        -0.72113
C         35.37013        40.16302        -0.64833
C         34.12938        39.43531        -0.69652
C         35.39266        41.58035        -0.64044
C         34.13286        42.29550        -0.40929
C         35.39212        44.48855        -0.88195
C         34.13881        43.80959        -0.51158
C         35.35517        45.91647        -1.10278
C         34.12848        46.61392        -1.13199
C         35.39299        48.78023        -1.70541
C         34.10473        48.04988        -1.31890
C         35.40501        50.24759        -1.31194
C         34.15823        50.99689        -1.48945
C         35.34814        53.07299        -0.78953
C         34.11167        52.40487        -1.08956
C         35.32999        54.43129        -0.28771
C         37.83659        18.74869         0.68101
C         36.59098        18.07492         0.63396
C         37.83450        20.17157         0.77023
C         36.59590        20.89471         0.81426
C         37.83055        23.03664         1.04921
C         36.60669        22.29918         1.00566
C         37.84303        24.45632         1.17239
C         36.59129        25.20839         1.63144
C         37.84771        27.35527         1.29185
C         36.55623        26.65664         1.20322
C         37.82976        28.83769         1.07801
C         36.55890        29.53369         0.80910
C         37.81935        31.67278         0.68261
C         36.60971        30.95476         0.57464
C         37.77251        33.10564         0.40404
C         36.69302        33.68061        -0.48065
C         37.80805        35.94713        -0.09958
C         36.61033        35.20027        -0.34467
C         37.84125        37.35069        -0.27357
C         36.60877        38.04292        -0.48846
C         37.83879        40.18613        -0.60372
C         36.60764        39.46652        -0.57309
C         37.83084        41.57619        -0.83460
C         36.60161        42.30116        -0.80712
C         37.82147        44.48010        -1.22412
C         36.56590        43.74563        -0.96694
C         37.83147        45.94176        -0.99789
C         36.61402        46.64745        -1.13614
C         37.85936        48.74995        -1.13431
C         36.64253        48.05659        -1.26772
C         37.88316        50.24020        -1.21347
C         36.57417        50.94396        -1.06912
C         37.83654        53.13101        -0.80725
C         36.56679        52.37343        -0.88044
C         37.77865        54.59906        -0.36766
C         36.45949        55.12361        -0.00062
C         40.30521        15.92553         0.36377
C         39.11902        16.60332         0.51347
C         40.31108        18.74306         0.66119
C         39.08471        18.02477         0.62829
C         40.29369        20.17410         0.74600
C         39.06625        20.89164         0.81450
C         40.31003        23.02454         0.96177
C         39.07364        22.32001         0.92487
C         40.32196        24.45013         1.01717
C         39.07738        25.15667         1.11054
C         40.32313        27.26999         0.95843
C         39.11457        26.59411         1.10413
C         40.34168        28.71821         0.65124
C         39.07353        29.51783         0.62993
C         40.36168        31.57411         0.91338
C         39.09457        30.98672         0.81443
C         40.53565        32.95570         1.27247
C         38.69921        33.96466         0.91713
C         40.21903        35.93316         0.50936
C         38.96691        35.29616         0.42365
C         40.27528        37.31663         0.16070
C         39.08697        38.03939        -0.17355
C         40.30152        40.16306        -0.43811
C         39.09570        39.46722        -0.42442
C         40.35138        41.57945        -0.71626
C         39.12200        42.20480        -1.33228
C         40.34095        44.48114        -0.89941
C         39.12189        43.73904        -1.30011
C         40.30576        45.88291        -0.70888
C         39.05524        46.62747        -0.84883
C         40.26327        48.78231        -0.43296
C         39.05187        48.04494        -0.86374
C         40.49860        50.23039        -0.85955
C         39.17274        50.99665        -0.99322
C         40.19481        53.05989        -0.00546
C         39.11104        52.41711        -0.55861
C         40.20383        54.49544         0.25885
C         39.01516        55.23955         0.14666
C         40.19907        57.30560         0.63668
C         39.01844        56.63463         0.39862
C         42.76566        15.95057         0.07780
C         41.54607        16.62531         0.33763
C         42.80206        18.73446         0.57749
C         41.55567        18.03508         0.54198
C         42.74662        20.15164         0.86404
C         41.52785        20.88539         0.81935
C         42.79414        23.01586         1.00996
C         41.55178        22.30891         0.93646
C         42.81650        24.45870         1.08024
C         41.56772        25.15953         1.03519
C         42.82912        27.29015         1.02746
C         41.58354        26.57998         1.00091
C         42.82392        28.73031         0.91587
C         41.61426        29.43802         0.76566
C         42.83072        31.57249         0.72035
C         41.60453        30.84632         0.76439
C         42.80384        33.03322         0.48900
C         41.56444        33.74811         0.85479
C         42.79641        35.93615         0.74943
C         41.47924        35.25204         1.08775
C         42.75204        37.34798         0.45124
C         41.55563        37.99023         0.14546
C         42.83146        40.17627        -0.19352
C         41.56267        39.39603        -0.31918
C         42.72179        41.65091        -0.05610
C         41.51428        42.31580        -0.59490
C         42.75774        44.49528        -0.56810
C         41.54427        43.76925        -0.69222
C         42.75157        45.90055        -0.52454
C         41.51620        46.56995        -0.43809
C         42.79417        48.73710         0.00616
C         41.51331        48.00632        -0.11416
C         42.71098        50.13342         0.56447
C         41.49728        50.88184         0.05995
C         42.71398        53.03732         0.69535
C         41.38210        52.27042         0.39968
C         42.69552        54.50020         0.56981
C         41.43865        55.18121         0.52891
C         42.66683        57.30230         0.74504
C         41.43175        56.60215         0.65057
C         43.94035        16.66449        -0.06735
C         45.21423        18.78829        -0.21629
C         43.99480        18.05978         0.17008
C         45.59909        19.96139         0.44380
C         43.88932        20.88996         1.21778
C         45.34906        22.90873         1.18251
C         43.99750        22.27588         1.07451
C         45.31148        24.41350         1.39161
C         44.03627        25.16056         1.22725
C         45.30744        27.33724         1.36704
C         44.06529        26.58977         1.19604
C         45.21792        28.76727         1.40733
C         44.03230        29.47041         1.04740
C         45.29865        31.65869         1.03848
C         44.05640        30.90048         0.89686
C         45.32867        33.06170         0.98869
C         44.11121        33.81207         0.65112
C         45.24757        36.00411         1.32033
C         43.99898        35.26379         0.89401
C         45.34552        37.33237         0.58185
C         44.05408        38.02658         0.20291
C         45.26995        40.19331         0.27248
C         44.09262        39.49803         0.16973
C         45.27162        41.67147         0.36047
C         43.98836        42.40763         0.12045
C         45.34733        44.49205        -0.55149
C         44.04280        43.76344        -0.49387
C         45.33771        45.98421        -0.66133
C         44.01035        46.69332        -0.61558
C         45.26047        48.81908        -0.02964
C         43.99644        48.11524        -0.19224
C         45.24298        50.22176         0.21154
C         43.99937        50.92336         0.36930
C         45.20793        53.06761         0.48440
C         43.98456        52.30846         0.50920
C         45.18173        54.48792         0.58156
C         43.91069        55.20983         0.59569
C         43.86577        56.63244         0.67518
C         47.02208        19.25574        -1.77068
C         45.98269        18.43963        -1.35626
C         47.28050        20.52209        -1.17342
C         46.46646        20.94687        -0.08620
C         47.58767        23.10382         0.00749
C         46.52512        22.30169         0.43965
C         47.76977        24.47101         0.54517
C         46.58730        25.18045         1.22884
C         47.85358        27.27581         1.17025
C         46.57469        26.65191         1.30425
C         48.10929        28.58590         1.65490
C         46.28193        29.61383         1.84188
C         47.77801        31.61829         1.86371
C         46.45686        30.94388         1.50379
C         47.76712        33.07758         1.47244
C         46.57100        33.78770         1.24240
C         47.76041        35.98078         1.50657
C         46.54600        35.21664         1.25190
C         47.78547        37.49729         1.20576
C         46.55663        38.14942         0.73955
C         47.76970        40.24157         0.29728
C         46.54529        39.51472         0.43082
C         47.82537        41.64844         0.15834
C         46.56769        42.41484         0.29591
C         47.76904        44.54116        -0.06285
C         46.58349        43.84539        -0.07114
C         47.77033        45.99925        -0.12506
C         46.56605        46.70814        -0.26214
C         47.73422        48.83379         0.13115
C         46.50919        48.12470        -0.08166
C         47.71988        50.24927         0.28572
C         46.47489        50.94613         0.30826
C         47.68350        53.09448         0.54618
C         46.45633        52.37114         0.44482
C         47.62410        54.50151         0.63956
C         46.41205        55.17520         0.64690
C         49.31722        20.92087        -2.54889
C         48.37853        21.36159        -1.58086
C         49.74895        23.37522        -1.24439
C         48.57160        22.61803        -0.93898
C         49.91295        24.71753        -0.71210
C         48.86022        25.31173         0.03398
C         50.12779        27.41499         0.17782
C         48.94778        26.64858         0.46049
C         50.21574        28.79977         0.52373
C         49.11417        29.45026         1.20569
C         50.23280        31.61914         1.10208
C         49.06509        30.89281         1.35921
C         50.29293        33.05352         1.17063
C         49.06746        33.77667         1.57240
C         50.31399        35.97456         1.07814
C         49.09006        35.28400         1.53964
C         50.26976        37.38970         0.79380
C         49.06187        38.10059         0.80338
C         50.30257        40.16504        -0.06652
C         49.00362        39.43936         0.20029
C         50.31556        41.66962        -0.29093
C         49.01942        42.37802         0.03164
C         50.21823        44.54330         0.16208
C         49.02393        43.81520         0.06811
C         50.23341        45.97998         0.20206
C         48.99753        46.70325         0.07308
C         50.20281        48.83038         0.35489
C         48.97678        48.12118         0.17581
C         50.20038        50.25474         0.47231
C         48.95643        50.96553         0.44093
C         50.18299        53.05330         0.73164
C         48.94483        52.38043         0.56904
C         50.47640        21.62505        -2.78766
C         52.03783        23.48800        -2.22934
C         50.74449        22.83936        -2.10565
C         52.27498        24.69937        -1.43037
C         51.11652        25.42491        -0.87809
C         52.48369        27.48968        -0.57386
C         51.25322        26.76954        -0.42186
C         52.55896        28.84981        -0.17251
C         51.41745        29.50417         0.34881
C         52.69455        31.66922         0.45478
C         51.54498        30.86226         1.00413
C         52.67398        33.05086         0.51801
C         51.47698        33.77403         0.91911
C         52.72915        35.94695         0.62820
C         51.49199        35.23140         0.88840
C         52.74445        37.36904         0.59071
C         51.51253        38.09739         0.54760
C         52.77769        40.21400         0.35020
C         51.54284        39.48325         0.31694
C         52.80168        41.62530         0.28489
C         51.50518        42.33762         0.35621
C         52.75807        44.56099         0.08047
C         51.48700        43.81909         0.42028
C         52.72927        45.96096         0.71356
C         51.44410        46.69151         0.38127
C         52.66973        48.84024         0.45050
C         51.43554        48.11026         0.40892
C         52.68417        50.23272         0.61666
C         51.43117        50.95727         0.64498
C         51.38259        52.36777         0.77069
C         54.32933        23.66030        -3.12679
C         53.09316        22.98217        -2.97642
C         54.58101        24.90790        -2.56794
C         53.58274        25.45028        -1.62444
C         54.78800        27.57496        -1.42736
C         53.62459        26.87554        -1.22477
C         55.01609        28.83044        -0.68164
C         53.81609        29.57558        -0.23923
C         55.17541        31.64060         0.03908
C         53.87243        30.92978         0.04845
C         55.16162        33.10611        -0.19148
C         53.85781        33.82353         0.06601
C         55.17810        35.93522         0.25624
C         53.93724        35.26132         0.35191
C         55.20812        37.35220         0.40247
C         53.98025        38.06802         0.48248
C         55.23151        40.20292         0.51068
C         54.00307        39.49346         0.45405
C         55.24057        41.62676         0.50562
C         54.01381        42.34985         0.37653
C         55.23766        44.47221         0.46837
C         54.03444        43.79124         0.36832
C         55.26240        45.98260         0.65548
C         53.97835        46.68738         0.30090
C         55.27252        48.93001         0.14895
C         53.92137        48.12592         0.12903
C         55.15575        50.25111         0.76669
C         53.95121        50.88397         0.87462
C         56.86616        25.18862        -3.55025
C         55.77030        25.68534        -2.84451
C         57.16587        27.82123        -2.45003
C         55.82791        27.07148        -2.34738
C         57.43003        29.01183        -1.62593
C         56.36668        29.50278        -0.72494
C         57.64976        31.71407        -0.68952
C         56.45968        30.92880        -0.29472
C         57.66755        33.11767        -0.43602
C         56.44321        33.83052        -0.16084
C         57.64640        35.96344         0.00016
C         56.42781        35.23575         0.00814
C         57.67813        37.34666         0.31466
C         56.44443        38.06291         0.43748
C         57.70181        40.17489         0.68434
C         56.46409        39.47759         0.55799
C         57.70434        41.60391         0.77015
C         56.47382        42.32901         0.63806
C         57.72329        44.43743         0.70516
C         56.47684        43.75156         0.61144
C         57.79374        45.86612         0.35423
C         56.52528        46.63421         0.11951
C         57.84647        48.79142         0.49224
C         56.57563        48.14688         0.08417
C         58.09949        25.87288        -3.63765
C         59.57789        27.77133        -2.99341
C         58.30860        27.11117        -3.03606
C         59.72381        29.01310        -2.42616
C         58.64732        29.66658        -1.71878
C         59.97371        31.78434        -1.36041
C         58.78259        31.04647        -1.21079
C         60.02088        33.14379        -1.04353
C         58.88413        33.83195        -0.60921
C         60.11676        35.91164         0.21541
C         58.92084        35.33955        -0.50919
C         60.11434        37.20559         0.61548
C         58.91891        38.02682         0.53107
C         60.13287        40.17656         0.97187
C         58.92928        39.43705         0.74312
C         60.12554        41.54470         1.10661
C         58.92289        42.30802         0.98714
C         60.08575        44.51308         1.39407
C         58.91937        43.74650         0.99632
C         60.12575        45.87233         1.36151
C         59.07295        46.63533         0.67744
C         58.96357        48.10346         0.81156
O         38.49147        44.22999        -2.53901
O         45.45865        23.48889         2.52292
O         49.60911        39.47739        -1.16631
O         41.84915        52.57509         1.78610
O         40.57115        48.43553         0.94760
O         31.05600        37.61131        -2.45003
O         44.87599        37.33528        -0.80521
O         30.71839        48.41820        -2.44866
O         54.28695        33.48784        -1.31239
O         44.72611        46.48586        -1.88939
O         45.01589        20.20637         1.69264
O         43.54393        33.46867        -0.68237
O         45.90367        42.16218         1.60114
O         32.59860        27.21419        -1.02680
O         56.04842        28.58562         0.37284
O         38.63299        50.80478        -2.35278
O         47.67605        36.99198         2.59120
O         53.37696        24.57425        -0.45936
O         31.11964        24.65042        -1.22564
O         47.66447        24.58071         2.00149
O         42.40699        39.68095        -1.51059
O         35.00285        23.56155         2.49487
O         56.07888        31.19763         1.09810
O         33.29865        29.24230         2.05956
O         37.91305        54.22211        -1.78079
O         51.36969        43.01379         1.65116
O         33.47255        50.70277        -2.76897
O         47.25712        29.03313         2.67383
O         58.79621        46.13153        -0.66942
O         43.08099        42.22998         1.25341
O         39.62265        29.02215        -0.63067
O         39.48441        33.53663         2.00070
O         34.17852        43.13907         0.80147
O         37.92973        28.30327         2.43875
O         56.55357        47.32544        -1.13768
O         44.82040        43.78017        -1.73988
O         34.26384        34.18154        -1.98817
O         54.52767        48.75019        -1.06875
O         49.26440        34.56346         2.80937
O         56.06835        28.06167        -3.41768
O         42.58649        49.97864         2.02158
H         42.32322        50.86500         2.37371
O         41.11151        50.16922        -2.17848
H         40.38302        50.28005        -2.83631
O         59.05674        35.79556        -1.90990
H         59.04513        36.77679        -1.89705
O         51.93655        30.57473         2.39492
H         51.18357        30.11652         2.82582
O         36.99410        33.40568        -1.87957
H         36.18780        33.65622        -2.39104
O         26.68678        33.53325        -2.35702
H         26.68758        32.57118        -2.54789
O         41.37236        35.45601         2.53236
H         40.57553        34.95834         2.83131
O         28.58143        46.49428        -2.32526
H         29.17703        47.05021        -2.87957
O         39.19089        41.80467        -2.73251
H         38.76731        42.52905        -3.25240
O         52.74184        45.75370         2.17513
H         52.29953        46.52147         2.59511
O         45.03488        36.32917         2.72771
H         45.90297        36.64183         3.08752
O         35.41403        48.75852        -3.16653
H         34.70024        49.37362        -3.46705
O         28.73559        45.95530         1.29516
H         28.13996        45.52112         1.94116
O         50.55005        41.87084        -1.71983
H         50.03761        41.16912        -2.18580
O         55.40298        46.17784         2.11615
H         54.56015        45.83869         2.51706
O         36.76223        25.29093         3.07991
H         36.25322        24.53590         3.46242
O         29.03848        31.09404         1.90174
H         29.06711        32.05139         2.11376
O         47.90175        31.59954         3.31846
H         47.79792        30.66155         3.60233
O         52.70940        44.78415        -1.35139
H         52.58895        43.92228        -1.80342
O         29.06291        39.52260        -2.78590
H         29.78040        38.92608        -3.11432
H         22.05265        26.82944         0.66349
H         22.01380        29.26908         0.37195
H         22.01196        31.16916         0.18286
H         22.03560        33.57657        -0.11775
H         22.05056        35.41638        -0.52549
H         22.05760        37.84460        -0.45902
H         22.08870        39.70389        -0.02895
H         22.11947        42.11634         0.22888
H         22.14583        44.00391         0.43777
H         22.20285        46.44209         0.69151
H         25.41653        23.47154         0.81248
H         23.29853        24.71042         0.82419
H         25.60923        49.79844         0.52350
H         23.47463        48.57334         0.72930
H         27.05676        22.55654         0.91885
H         27.42240        50.62639         0.83152
H         29.14241        21.31587         0.93712
H         29.43527        51.87706         0.24474
H         32.85185        19.12622         0.22884
H         30.74895        20.35115         0.14784
H         32.81234        54.13726        -0.93037
H         30.73137        52.90077        -0.94646
H         34.46237        18.19760         0.55407
H         34.36085        54.87967        -0.03103
H         36.55460        16.97923         0.58620
H         36.38979        56.08651         0.52474
H         40.30650        14.83279         0.24217
H         38.18308        16.02970         0.51626
H         40.20145        58.39733         0.76435
H         38.07958        57.20071         0.33080
H         42.75669        14.86131        -0.07045
H         42.65082        58.39775         0.83683
H         44.86308        16.13761        -0.34870
H         44.79697        57.21211         0.71131
H         47.62537        18.93025        -2.62798
H         45.75644        17.51889        -1.91191
H         48.54738        55.09183         0.70379
H         46.43051        56.27044         0.71634
H         49.15369        19.97592        -3.08259
H         50.20514        54.14667         0.83017
H         51.20606        21.22346        -3.50285
H         52.31198        52.94074         0.88910
H         55.07968        23.19940        -3.78433
H         52.97315        22.03768        -3.52481
H         56.06146        50.74726         1.14499
H         53.93976        51.90749         1.27528
H         56.81375        24.18021        -3.98433
H         57.84716        49.88506         0.61586
H         58.94107        25.37539        -4.14138
H         60.44053        27.28375        -3.47083
H         60.70716        29.49988        -2.47035
H         60.88226        31.30091        -1.74295
H         60.95987        33.69383        -1.19728
H         61.03305        35.30919         0.30119
H         61.02627        37.63774         1.05255
H         61.09167        39.64352         1.03331
H         61.08028        42.06371         1.26861
H         60.92920        43.97316         1.84773
H         60.96837        46.41554         1.81470
H         59.84652        48.64832         1.18018
