         618
 CSIRO Nanostructure Databank - Neutral Graphene Oxide Data Set
C         23.43385        69.56813        -2.05664
C         23.55438        70.87715        -2.67530
C         22.54025        71.40633        -3.42073
C         23.85679        73.34568        -4.11619
C         22.71488        72.62781        -4.17585
C         25.50034        65.54799         0.03612
C         25.38576        67.01197         0.00064
C         24.17135        67.62245        -0.69399
C         25.55742        69.83693        -0.83393
C         24.39282        69.01294        -1.26424
C         25.70495        71.22362        -1.39571
C         24.92449        71.51898        -2.69506
C         26.34578        73.28279        -3.75107
C         24.96690        73.01127        -3.14248
C         27.92569        61.41111         1.03984
C         27.86113        62.81205         0.96956
C         26.67140        63.49151         0.62974
C         27.79514        65.72908         1.04647
C         26.61152        64.90368         0.55764
C         27.94814        66.95958         0.14693
C         26.67990        67.79439         0.15388
C         28.04087        69.75176        -0.45158
C         26.78644        69.16081        -0.36869
C         28.19993        71.09277        -1.00668
C         27.06285        71.81062        -1.28622
C         28.84795        73.12339        -3.24993
C         27.43990        73.22943        -2.94563
C         30.42262        57.21579         0.79228
C         30.41121        58.61945         0.91767
C         29.18678        59.31914         1.04095
C         30.39626        61.44307         1.36598
C         29.15999        60.71744         1.16313
C         30.29227        62.86287         1.50564
C         29.08226        63.56985         1.18599
C         30.32060        65.71001         1.22125
C         29.09906        64.96169         1.10900
C         30.36429        67.09659         0.93991
C         29.19283        67.76501         0.45620
C         30.37881        69.97652         0.44814
C         29.20760        69.10019         0.09939
C         30.62556        71.03345        -0.61831
C         29.53813        71.59905        -1.31482
C         31.21759        72.59662        -2.92530
C         29.77744        72.49901        -2.44205
C         32.80081        52.96978         0.15393
C         32.82467        54.38988         0.24990
C         31.63280        55.10487         0.50338
C         32.87015        57.24091         0.51182
C         31.63371        56.51035         0.61428
C         32.88042        58.66454         0.58809
C         31.64113        59.35787         0.86936
C         32.91688        61.42531         1.09560
C         31.64347        60.74685         1.18036
C         33.14107        62.62973         1.73155
C         31.36478        63.66559         1.95879
C         32.79849        65.70082         1.68758
C         31.52229        65.03302         1.63881
C         32.84513        67.13701         1.48100
C         31.61243        67.83564         1.07722
C         32.84484        70.02564         1.07229
C         31.62892        69.18806         0.79063
C         33.00818        71.15638         0.08502
C         31.93462        71.56685        -0.74234
C         33.31256        73.31943        -1.73641
C         32.19335        72.56099        -1.77806
C         35.19697        48.65590        -0.62107
C         35.19609        50.14773        -0.81842
C         33.96465        50.82754        -0.27042
C         35.24135        52.92743        -0.34390
C         33.95751        52.20375        -0.12697
C         35.28394        54.41939        -0.20969
C         34.04430        55.12925         0.11881
C         35.33200        57.25564         0.18809
C         34.08407        56.53340         0.27971
C         35.32717        58.68797         0.19366
C         34.08505        59.37429         0.35343
C         35.28256        61.64451         0.11185
C         33.94739        60.87143         0.13198
C         35.27334        63.04047         0.64969
C         34.17045        63.56282         1.41473
C         35.30413        65.69702         1.82907
C         34.03348        64.96286         1.67066
C         35.30876        67.18403         2.10769
C         34.05794        67.86011         1.56517
C         35.33013        69.96822         1.21021
C         34.12648        69.24575         1.24600
C         35.39934        71.30075         0.65921
C         34.22826        71.85210         0.06119
C         35.57924        73.79316        -0.77510
C         34.21510        73.24059        -0.52980
C         37.67232        44.39862        -0.39868
C         37.66319        45.80449        -0.55038
C         36.45264        46.52272        -0.50652
C         37.64489        48.68269        -0.49779
C         36.38317        47.95198        -0.57811
C         37.67431        50.02331        -0.20931
C         36.46274        50.80803        -0.28869
C         37.67110        52.88635         0.49107
C         36.48828        52.16239        -0.11378
C         37.75360        54.36387         0.15616
C         36.57033        55.10426         0.01029
C         37.79519        57.24427         0.10110
C         36.56741        56.54253         0.08526
C         37.78633        58.66009         0.12928
C         36.58044        59.38990         0.10257
C         37.92934        61.54616         0.29818
C         36.62026        60.88261        -0.01348
C         38.13313        62.93509         0.21624
C         36.31794        63.90651         0.42538
C         37.87773        65.75657         1.23603
C         36.56703        65.05601         1.27367
C         37.82008        67.17624         1.50484
C         36.61397        67.85132         1.68421
C         37.86517        70.10452         1.63292
C         36.57774        69.33324         1.70113
C         37.87095        71.44000         0.97981
C         36.65212        71.99227         0.51322
C         37.98646        74.01877        -0.39083
C         36.69262        73.24963        -0.22636
C         40.15083        40.07026        -0.09661
C         40.11119        41.52190        -0.13036
C         38.86762        42.28719        -0.27908
C         40.03031        44.32955        -1.24474
C         38.86322        43.64733        -0.53776
C         40.14502        45.82299        -0.94171
C         38.92838        46.49590        -0.75105
C         40.21915        48.69033        -0.69898
C         38.88883        47.94923        -0.80585
C         40.21151        50.04332        -0.15385
C         38.93228        50.66472         0.32162
C         40.17074        52.82127         0.47705
C         38.96678        52.16299         0.27354
C         40.19678        54.28992         0.51592
C         39.00226        55.01329         0.22689
C         40.31557        57.14353         0.38763
C         39.08111        56.47235        -0.15752
C         40.37417        58.60875         0.32961
C         39.08749        59.38060         0.17685
C         40.29922        61.44124         0.97966
C         39.09622        60.79967         0.57561
C         40.31287        62.85241         1.23756
C         39.18314        63.62192         0.88266
C         40.30071        65.71223         1.65813
C         39.08899        65.05348         1.18653
C         40.25356        67.14509         1.83241
C         39.09152        67.87066         1.61446
C         40.32022        69.99316         1.48559
C         39.13663        69.33311         1.60551
C         40.34627        71.51572         1.44354
C         39.11729        72.06221         0.74146
C         40.46744        73.81262        -0.32355
C         39.22489        73.26361         0.00892
C         42.55336        35.79750         0.26694
C         42.55510        37.20266         0.10622
C         41.35982        37.94892         0.04255
C         42.63230        40.03984        -0.32056
C         41.35928        39.36071        -0.10340
C         42.65934        41.45031        -0.60174
C         41.41706        42.23977        -0.43336
C         42.66760        44.30701        -1.22685
C         41.35974        43.57847        -1.11245
C         42.68295        45.81991        -1.42890
C         41.39613        46.51664        -0.97123
C         42.67432        48.61895        -0.46585
C         41.46329        47.90446        -0.68820
C         42.67785        49.97210        -0.04665
C         41.41693        50.68696         0.11780
C         42.63238        52.69793         0.92529
C         41.39617        52.06370         0.50664
C         42.62950        54.24646         1.07807
C         41.40869        54.97626         0.72993
C         42.70760        57.11126         0.97937
C         41.45609        56.42026         0.69600
C         42.73335        58.51067         1.14519
C         41.53168        59.29588         0.93566
C         42.63044        61.26925         1.97486
C         41.48504        60.64890         1.21546
C         42.67143        62.77908         1.92062
C         41.51375        63.52429         1.72946
C         42.62795        65.64553         2.55417
C         41.45405        64.96354         1.94104
C         42.67793        67.14253         2.66089
C         41.41503        67.96300         2.38631
C         42.75903        70.12324         2.04587
C         41.62384        69.20660         1.51538
C         42.81619        71.30591         1.10722
C         41.65919        71.97715         0.83322
C         42.92781        73.71830        -0.38293
C         41.68768        73.17169        -0.00694
C         44.94133        32.94728         0.44352
C         43.75588        33.64511         0.42055
C         45.01565        35.76242         0.22748
C         43.75410        35.06924         0.29710
C         45.03160        37.17719         0.16417
C         43.82134        37.89410         0.04021
C         45.11238        39.92257        -0.56647
C         43.82219        39.29653        -0.24424
C         45.13065        41.42762        -0.83564
C         43.85667        42.15686        -0.77296
C         45.11191        44.28155        -0.70907
C         43.90533        43.58900        -0.83035
C         45.10294        45.73914        -0.67609
C         43.94186        46.46354        -0.87015
C         45.16936        48.57452        -0.23365
C         43.97057        47.97480        -0.90733
C         45.12941        49.89183         0.22223
C         43.90897        50.63858         0.28618
C         45.10606        52.73731         0.93740
C         43.92340        52.01310         0.71836
C         45.13234        54.18540         1.03151
C         43.92308        54.93688         1.00030
C         45.17329        57.04178         1.13947
C         43.93048        56.35421         1.03094
C         45.19050        58.45409         1.34605
C         43.96708        59.19661         1.41162
C         45.16244        61.28945         1.91345
C         43.96313        60.60192         1.67980
C         45.21989        62.69159         2.22217
C         43.92205        63.39757         2.43297
C         45.20718        65.62347         2.81954
C         43.90576        64.86717         2.72879
C         45.25757        67.06776         2.50477
C         44.01474        67.85215         2.63301
C         45.30650        69.76611         1.56080
C         44.06462        69.32801         2.20984
C         45.29356        70.88037         0.60200
C         43.98962        71.54945         0.19122
C         45.37844        73.63215        -0.33287
C         44.13512        73.01778        -0.16431
C         46.17935        33.62616         0.31322
C         47.56112        35.66633        -0.09148
C         46.23160        35.00627         0.20506
C         47.58792        37.16360         0.14664
C         46.31126        37.91446         0.48591
C         47.53736        40.00826        -0.09142
C         46.35907        39.31289        -0.08367
C         47.58275        41.43129        -0.37862
C         46.38021        42.15126        -0.59282
C         47.59365        44.26172        -0.44536
C         46.35964        43.56351        -0.55779
C         47.58902        45.69223        -0.38610
C         46.36903        46.41844        -0.42740
C         47.63027        48.49470        -0.03774
C         46.38198        47.81943        -0.21358
C         47.64452        49.88588         0.30401
C         46.37916        50.50648         0.70094
C         47.65685        52.71376         0.89457
C         46.38513        52.00127         1.03473
C         47.68345        54.16301         1.28982
C         46.37192        54.88767         1.06844
C         47.64980        57.01463         1.13290
C         46.39441        56.29855         1.12091
C         47.65076        58.40913         1.39624
C         46.43736        59.10512         1.55330
C         47.72705        61.28464         1.99275
C         46.41764        60.51507         1.97248
C         47.67935        62.74923         1.96704
C         46.43989        63.38671         2.31355
C         47.72031        65.59576         2.38653
C         46.48902        64.83305         2.65927
C         47.73012        66.97631         2.32564
C         46.47227        67.72215         2.30677
C         47.77607        69.73969         1.53536
C         46.50163        69.09463         1.82621
C         47.81452        71.00199         0.97063
C         46.61534        71.57766         0.35465
C         47.81807        73.72693        -0.00219
C         46.62103        73.00857        -0.03873
C         48.74673        37.84935         0.10749
C         50.04914        40.03185         0.04928
C         48.78178        39.32749         0.44587
C         50.06903        41.39421        -0.18258
C         48.81369        42.13002        -0.30536
C         50.07673        44.25894        -0.34909
C         48.82563        43.54508        -0.38267
C         50.08446        45.65575        -0.33222
C         48.83782        46.38228        -0.30921
C         50.10893        48.53887        -0.39713
C         48.83616        47.78553        -0.18865
C         50.08682        49.95207         0.11406
C         48.84440        50.61224         0.35451
C         50.05865        52.77958         0.36352
C         48.83833        52.03801         0.62021
C         50.03568        54.22377         0.37457
C         48.88299        54.90669         0.75660
C         50.06377        57.05837         0.53639
C         48.86888        56.32817         0.83157
C         50.08663        58.46277         0.72557
C         48.95730        59.10922         1.41487
C         50.06514        61.41312         0.94684
C         49.00332        60.61316         1.60465
C         50.05881        62.82398         1.20215
C         48.88888        63.43096         1.78558
C         50.27924        65.51417         2.37982
C         48.96964        64.81222         2.30445
C         50.26512        67.00525         2.52196
C         48.98882        67.71140         2.25043
C         50.27718        69.76566         1.81548
C         49.01286        69.05430         1.91379
C         50.22126        71.22255         1.51308
C         49.12093        71.64684         0.57739
C         50.23909        73.89189         0.42618
C         49.06329        73.14866         0.37942
C         51.30003        42.12388        -0.27387
C         52.56095        44.24157        -0.30138
C         51.33087        43.52291        -0.31761
C         52.60898        45.64688        -0.23452
C         51.34372        46.37875        -0.21969
C         52.60630        48.46779         0.15291
C         51.34379        47.74679        -0.07384
C         52.57743        49.98218         0.11772
C         51.26770        50.67654         0.06488
C         52.38586        52.78277        -0.63111
C         51.22925        52.09776         0.04440
C         52.37483        54.27260        -0.42051
C         51.24146        54.94519        -0.00517
C         52.38560        57.14139        -0.28180
C         51.23958        56.39434         0.07131
C         52.37647        58.57804        -0.16482
C         51.20875        59.22623         0.37578
C         52.16017        61.29400        -0.39469
C         51.13872        60.67027         0.35117
C         52.25353        63.34183         0.06820
C         51.21827        63.67285         1.01030
C         52.66912        65.57574         1.56127
C         51.42821        64.90174         1.67757
C         52.79239        66.95090         1.89142
C         51.57610        67.71762         2.30454
C         52.76307        69.88372         1.75774
C         51.48972        69.14506         1.95657
C         52.73949        71.37646         1.95346
C         51.45217        72.05048         1.57918
C         52.70497        74.00883         0.71727
C         51.49554        73.35126         0.86546
C         53.83291        46.36606        -0.25472
C         55.05178        48.54960        -0.20170
C         53.88470        47.77934        -0.13031
C         55.04037        49.99512        -0.25113
C         53.80470        50.69031        -0.20744
C         54.88982        52.81170        -0.99098
C         53.76027        52.19344        -0.18862
C         54.82084        54.29956        -1.24807
C         53.55530        55.01892        -0.89089
C         54.76568        57.18257        -0.97343
C         53.58603        56.48290        -0.72365
C         54.68240        58.66771        -1.19375
C         53.51169        59.32062        -0.52679
C         54.63754        61.54532        -0.77076
C         53.46821        60.75174        -0.58148
C         54.56909        63.08811        -0.82150
C         53.55815        63.71602         0.12979
C         55.04112        65.66052         0.64704
C         53.90461        64.79228         1.12719
C         55.15633        66.95267         1.15962
C         54.01821        67.62229         1.72342
C         55.34687        69.83954         1.92725
C         54.04435        69.11693         1.71317
C         55.33499        71.35558         1.79819
C         54.02273        72.11620         1.76940
C         55.16440        74.04893         0.75299
C         53.97773        73.43994         1.08925
C         56.24539        50.74574        -0.34910
C         57.41482        53.00074        -0.80508
C         56.24188        52.12141        -0.85360
C         57.36690        54.37503        -0.99513
C         56.12457        55.06216        -1.52405
C         57.20584        57.28651        -1.10508
C         56.03110        56.53596        -1.14764
C         57.17954        58.74344        -1.03923
C         55.95570        59.43397        -0.98547
C         57.12386        61.57910        -1.06670
C         55.90275        60.86166        -0.92202
C         57.07103        63.04447        -1.28688
C         55.91809        63.76749        -0.69599
C         57.22256        65.88857        -0.59171
C         56.06281        65.03787        -0.17521
C         57.43105        67.19073         0.12229
C         56.54742        67.54293         1.31568
C         57.87517        69.86585         1.40213
C         56.62082        69.06115         1.65668
C         57.88511        71.41301         1.54099
C         56.53389        72.05578         1.31041
C         57.63928        74.13694         0.64152
C         56.45551        73.40584         0.92204
C         58.52545        55.18499        -0.89406
C         59.66795        57.35132        -1.04605
C         58.48504        56.59468        -1.04124
C         59.65473        58.76999        -1.14011
C         58.39624        59.47904        -1.09887
C         59.60269        61.63684        -1.36544
C         58.36343        60.90288        -1.18653
C         59.62699        63.04183        -1.50266
C         58.34272        63.78400        -1.58226
C         59.70243        65.92173        -1.27093
C         58.33251        65.31730        -1.51723
C         59.78945        67.22893        -0.84016
C         58.79512        67.80791         0.09177
C         60.14889        69.99506         0.17279
C         59.01789        69.18176         0.67846
C         60.15911        71.42151         0.36049
C         58.98951        72.09452         0.77132
C         60.07389        74.23018         0.20150
C         58.91008        73.50326         0.57004
C         60.84600        59.49461        -1.26088
C         62.06122        61.60383        -1.53234
C         60.84695        60.91040        -1.38523
C         62.09835        63.01217        -1.62007
C         60.85850        63.74195        -1.59918
C         62.15554        65.82366        -1.65837
C         60.90457        65.18202        -1.60847
C         62.22607        67.27948        -1.65126
C         60.97061        68.02803        -1.14092
C         62.35028        70.06542        -0.91068
C         61.14741        69.37413        -0.58339
C         62.45099        71.42874        -0.48957
C         61.33608        72.16314         0.01405
C         62.46391        74.43566        -0.32626
C         61.33131        73.61434         0.03004
C         63.33994        63.69761        -1.69443
C         64.64131        65.80816        -1.76156
C         63.39862        65.10153        -1.70460
C         64.73729        67.21591        -1.68952
C         63.51323        67.96637        -1.53036
C         64.77016        70.06892        -1.63616
C         63.51830        69.34835        -1.33841
C         64.85634        71.55865        -1.23481
C         63.74254        71.99073        -0.43434
C         65.00806        74.49321        -0.80137
C         63.80666        74.02337        -0.23549
C         65.97918        67.91424        -1.71264
C         67.24128        70.06412        -1.65519
C         66.04622        69.32880        -1.69099
C         67.31017        71.48650        -1.43549
C         66.14994        72.24969        -1.13015
C         67.45857        74.29268        -1.07683
C         66.19051        73.66693        -0.94955
C         68.55681        72.16166        -1.48196
C         68.61330        73.54441        -1.31010
O         57.46692        63.34265        -2.68484
O         35.24315        53.74495        -1.56298
O         64.54414        71.12491        -2.60523
O         25.06045        71.04676        -0.10749
O         47.15713        60.75301         3.22262
O         46.06398        70.61765        -0.63765
O         50.44456        72.07116         2.66995
O         37.25518        63.68969        -0.58524
O         64.00672        72.85473         0.59824
O         37.13737        69.99401         2.89921
O         51.85144        62.50606        -1.00430
O         40.94862        42.21579         0.93420
O         35.93340        61.45506        -1.18113
O         45.96702        65.20730         3.98706
O         61.31549        67.96608        -2.55966
O         45.19841        40.45072        -1.93232
O         46.36589        50.97575         2.09593
O         36.18648        64.90439         2.69916
O         42.51426        53.35709         2.23531
O         55.39267        52.11961        -2.12228
O         53.87005        54.59777        -2.33450
O         53.37198        72.01565         3.08742
O         42.07558        43.58583        -2.38747
O         49.43807        59.70849         2.67161
O         55.48795        70.66324         3.10594
O         39.95396        59.14569        -1.00313
O         51.06055        67.45995         3.66166
O         25.75403        67.65262         1.26762
O         42.39603        66.33907         3.84982
O         32.29764        63.02414         2.78601
O         39.52310        48.54251        -1.99585
O         56.73724        67.18121        -1.14194
O         59.43118        67.96938         1.41009
O         27.18309        73.16948        -1.55213
O         44.20430        68.92462         3.60521
O         53.39841        69.58348         0.44741
O         52.65362        49.22670         1.41766
O         43.75676        63.89876         3.81639
O         57.61121        69.26689         2.70620
O         49.77906        64.81924         3.56337
O         58.04042        65.79252        -2.84978
H         57.46306        65.11532        -3.27650
O         28.07763        66.49567        -1.22929
H         28.90047        65.96522        -1.29078
O         54.14789        63.39227        -2.18755
H         53.22319        63.06538        -2.28326
O         46.29315        38.07403         1.95653
H         46.18315        37.18147         2.34897
O         43.56291        70.85781        -1.04204
H         44.38816        70.70519        -1.56301
O         39.63039        44.24652        -2.64199
H         40.45364        44.22278        -3.18151
O         25.66983        70.78702        -3.71847
H         25.33229        69.86707        -3.74930
O         35.25668        67.35491         3.54812
H         35.87942        66.70252         3.93854
O         42.74339        46.05468        -2.87394
H         42.39777        45.24200        -3.31299
O         38.86791        50.35584         1.80012
H         39.70155        50.69713         2.19495
O         47.90752        35.39440        -1.46502
H         47.20377        35.76509        -2.03622
O         42.00715        68.75512         0.20033
H         42.34863        69.52399        -0.32637
O         23.72019        66.74129        -1.73263
H         24.42503        66.66497        -2.40786
O         32.61120        70.65460         2.38000
H         31.66746        70.95648         2.38135
O         40.98509        68.44681         3.68607
H         41.07619        67.68764         4.30952
O         54.42061        64.11304         2.32984
H         54.67500        64.80669         2.97600
O         35.17048        50.37658        -2.27163
H         35.22132        51.34670        -2.41862
O         39.25373        56.49733        -1.62578
H         39.44557        57.43919        -1.85885
O         50.19463        48.72511        -1.87336
H         50.03337        47.85126        -2.29052
O         38.10833        74.52132        -1.73029
H         38.17196        73.75823        -2.34006
O         42.41913        70.64115         3.34619
H         42.16129        69.87138         3.91404
O         49.46792        71.07038        -0.72167
H         48.69467        71.17953        -1.31545
O         58.17749        71.70459         2.94103
H         57.51980        71.19309         3.47220
O         29.98601        70.71781         1.66969
H         29.51582        70.08930         2.25924
O         33.37683        61.02648        -1.20160
H         34.12836        60.94829        -1.83385
O         57.07578        66.82379         2.45397
H         57.78144        67.39523         2.84770
O         44.10942        48.35382        -2.32565
H         43.51551        47.75780        -2.84391
O         47.86505        54.14311         2.75583
H         47.18490        53.54230         3.13044
O         56.31108        55.05865        -2.96587
H         55.41603        55.13883        -3.36849
O         48.73253        39.41988         1.90861
H         47.87652        39.00581         2.18846
O         27.55015        66.19203         2.39463
H         27.31623        65.41739         2.94574
O         37.43978        52.83915         1.94915
H         37.67897        51.92373         2.23641
O         54.40956        58.79225        -2.65261
H         53.63350        58.22547        -2.85208
O         42.36216        60.96226         3.38996
H         42.98552        61.49146         3.93518
O         33.60955        74.11391         0.49538
H         32.81497        73.65212         0.83964
O         40.22663        72.02322         2.79529
H         41.00796        71.67609         3.29995
O         24.74151        73.81568        -1.97158
H         24.87555        74.75624        -2.20548
O         53.98376        52.62094         1.18769
H         53.46545        52.03563         1.78103
O         52.21915        52.49505        -2.04120
H         52.79020        53.13132        -2.54144
O         31.42201        73.74235        -3.74707
H         31.29178        74.54214        -3.19736
H         23.94773        74.28315        -4.68668
H         26.45534        73.31025        -4.84426
H         29.22240        73.57947        -4.18128
H         31.42354        71.69702        -3.57386
H         33.51159        74.06524        -2.52076
H         35.66208        74.73607        -1.33662
H         37.92582        74.92637         0.27237
H         40.48922        74.74424        -0.90809
H         42.96046        74.72694        -0.82221
H         45.39551        74.69251        -0.62996
H         47.79038        74.80378        -0.23133
H         50.21034        74.94820         0.11442
H         52.72149        74.98476         0.20761
H         55.14635        75.03971         0.27432
H         57.56088        75.20980         0.41262
H         59.99372        75.32100         0.08017
H         62.25288        75.44682        -0.70399
H         65.06393        75.53266        -1.15717
H         67.52960        75.38455        -0.97081
H         22.52502        68.98564        -2.27599
H         21.57169        70.88776        -3.47372
H         21.89006        72.95388        -4.82641
H         24.67409        64.95507        -0.38531
H         23.33576        67.67746         0.05319
H         27.00680        60.82442         0.89070
H         25.77728        62.90510         0.36887
H         29.47433        56.66051         0.83455
H         28.24072        58.76263         0.96940
H         31.83856        52.45240         0.28274
H         30.68309        54.55817         0.59619
H         34.23596        48.11981        -0.63692
H         33.03018        50.25574        -0.16314
H         36.74605        43.88345        -0.10212
H         35.51122        45.95702        -0.43593
H         39.19974        39.51787        -0.09188
H         37.92493        41.79656         0.01054
H         41.59469        35.26540         0.35634
H         40.39691        37.42544         0.13719
H         44.93686        31.85232         0.53544
H         42.79437        33.11619         0.48798
H         47.11172        33.04492         0.27627
H         48.36088        35.18290         0.52866
H         49.69417        37.32331        -0.08986
H         51.00027        39.48684         0.15375
H         52.24697        41.56574        -0.21978
H         53.50303        43.67260        -0.31328
H         54.77234        45.80566        -0.37771
H         56.01931        48.04008        -0.32630
H         57.21104        50.24817        -0.17518
H         58.36062        52.55254        -0.46168
H         59.49534        54.70425        -0.69439
H         60.63821        56.83347        -1.01124
H         61.80641        58.95863        -1.28394
H         63.00413        61.03797        -1.55557
H         64.27077        63.11202        -1.71655
H         65.56690        65.21933        -1.84571
H         66.91378        67.33640        -1.75514
H         68.19284        69.52078        -1.75812
H         69.47443        71.59293        -1.68928
H         69.58295        74.05799        -1.37586
