         424
 CSIRO Nanostructure Databank - Neutral Graphene Oxide Data Set
C          1.47073         2.13103         1.55393
C          1.45374         3.56353         1.45561
C          2.64860         1.43927         1.54774
C          2.60188         4.31040         1.49575
C          1.39989         6.48635         1.44532
C          1.38410         7.88162         1.31676
C          2.59622         5.76598         1.37812
C          2.55361         8.60696         1.12376
C          1.43509        10.77553         1.79682
C          1.56633        12.06704         2.18572
C          2.46482        10.11197         0.92763
C          2.76427        12.82883         1.93619
C          1.68534        14.98170         2.58331
C          1.77154        16.33387         2.82843
C          2.84034        14.21709         2.23494
C          3.03249        16.99238         2.82236
C          3.12657        18.42207         2.99548
C          3.90401         2.13920         1.46785
C          3.91962         3.62304         1.77170
C          5.07217         1.46798         1.20939
C          5.11339         4.34079         1.18661
C          3.81718         6.48203         1.16474
C          3.79784         7.90703         1.01524
C          5.06479         5.77589         1.03882
C          5.00490         8.60675         0.70478
C          3.80121        10.80277         1.01327
C          3.91413        12.13245         1.41314
C          4.93599        10.08261         0.34828
C          5.18195        12.84348         1.30796
C          4.11090        14.88351         2.18501
C          4.19434        16.24291         2.55232
C          5.28064        14.17635         1.72632
C          5.53324        16.88076         2.80666
C          4.30772        19.08685         2.80495
C          5.53592        18.37770         2.56529
C          6.30732         2.16600         0.95772
C          6.28636         3.61921         0.92309
C          7.47543         1.47796         0.66890
C          7.50215         4.29926         0.59799
C          6.24107         6.49865         0.75644
C          6.21741         7.91208         0.55002
C          7.51935         5.76553         0.71108
C          7.42579         8.63511         0.14363
C          6.25805        10.78524         0.49089
C          6.34313        12.14398         0.80748
C          7.41298        10.03809         0.11036
C          7.60384        12.86137         0.68488
C          6.55707        14.88387         1.65618
C          6.67246        16.18168         2.11343
C          7.70454        14.20019         1.08634
C          8.01005        16.86165         2.22550
C          6.70202        19.03675         2.25252
C          7.94733        18.36215         2.00431
C          8.67728         2.14940         0.28063
C          8.66290         3.60036         0.23840
C          9.84220         1.43265        -0.01842
C          9.82381         4.30127        -0.24200
C          8.76722         6.49112         0.29598
C          8.67540         7.93187        -0.05244
C          9.89481         5.69945        -0.24451
C          9.85500         8.57302        -0.36474
C          8.59233        10.80160        -0.31643
C          8.73335        12.20374         0.08629
C          9.88256        10.01031        -0.62118
C          9.95709        12.87034        -0.11704
C          8.95775        14.92029         0.93270
C          9.08785        16.21384         1.40559
C         10.07898        14.25660         0.27336
C         10.41598        16.92681         1.42184
C          9.06666        19.06328         1.62093
C         10.31859        18.43395         1.26183
C         11.02626         2.07091        -0.48361
C         10.93657         3.51689        -0.78841
C         12.22328         1.39628        -0.70148
C         12.23163         4.26293        -1.14086
C         11.09689         6.39686        -0.57190
C         11.16993         7.85110        -0.16309
C         12.26259         5.71511        -0.91433
C         12.36529         8.57707        -0.72809
C         11.15319        10.74079        -0.57508
C         11.13825        12.12858        -0.51205
C         12.38079         9.99047        -0.74314
C         12.37514        12.85638        -0.85888
C         11.27041        14.96500         0.06705
C         11.42624        16.32082         0.48892
C         12.39384        14.35928        -0.66392
C         12.58862        17.02853         0.22745
C         11.40358        19.15835         0.85600
C         12.58315        18.53552         0.14620
C         13.46333         2.06436        -0.98676
C         13.49700         3.51647        -1.07038
C         14.65269         1.35382        -1.14358
C         14.69223         4.21500        -1.10187
C         13.52057         6.39285        -1.06964
C         13.53321         7.84983        -1.04799
C         14.69564         5.64332        -1.22217
C         14.74836         8.55354        -1.25220
C         13.61861        10.68034        -0.87806
C         13.66480        12.12969        -0.90199
C         14.80348         9.93878        -1.05461
C         14.86103        12.81569        -1.02675
C         13.70033        15.02836        -0.60631
C         13.77541        16.33194        -0.19632
C         14.86554        14.31529        -1.24410
C         15.09799        16.98506         0.10849
C         13.94057        19.18228         0.31217
C         15.11402        18.49565         0.05933
C         15.92710         2.01197        -1.26349
C         15.99490         3.47678        -0.88649
C         17.07771         1.31698        -1.51893
C         17.23033         4.18022        -1.41749
C         15.95283         6.31800        -1.60547
C         15.96174         7.82053        -1.66513
C         17.24696         5.60108        -1.52953
C         17.26305         8.52320        -1.64336
C         16.12170        10.62532        -0.85695
C         16.11449        12.10447        -1.17483
C         17.30042         9.87683        -1.41364
C         17.29740        12.77552        -1.36693
C         16.16912        14.97648        -0.90248
C         16.25130        16.31021        -0.57947
C         17.43872        14.19094        -0.90822
C         17.49278        17.00880        -0.72634
C         16.38735        19.12682        -0.08099
C         17.56143        18.42787        -0.49477
C         18.42155         1.95822        -1.74977
C         18.41435         3.46036        -1.55989
C         19.56951         1.32732        -0.93469
C         19.66771         4.14169        -1.63313
C         18.45414         6.30012        -1.68683
C         18.48734         7.75999        -1.76349
C         19.68973         5.56775        -1.68741
C         19.70811         8.43350        -1.80556
C         18.57873        10.58244        -1.45154
C         18.60685        12.08558        -1.49064
C         19.77724         9.86157        -1.85656
C         19.76338        12.76821        -2.11097
C         18.57124        14.92594        -1.55461
C         18.58572        16.33451        -1.36647
C         19.61879        14.22928        -2.22210
C         19.70992        17.08460        -1.78986
C         18.78643        19.10274        -0.75689
C         19.88188        18.45891        -1.40058
C         20.88969         2.00274        -1.25002
C         20.89588         3.41073        -1.52072
C         22.08380         1.31617        -1.13949
C         22.14676         4.10100        -1.58743
C         20.93811         6.24508        -1.70071
C         20.96995         7.71980        -1.44940
C         22.15387         5.55039        -1.66756
C         22.21646         8.42484        -1.89850
C         20.96722        10.57507        -2.08341
C         20.94781        12.01186        -2.32486
C         22.21288         9.80851        -2.10626
C         22.23845        12.61647        -2.67834
C         20.50710        15.06044        -2.93831
C         20.64841        16.45377        -2.65368
C         22.38390        13.89172        -3.24645
C         21.78097        17.19657        -3.06395
C         21.13746        19.06742        -1.64923
C         22.16313        18.41981        -2.41945
C         23.35037         1.97981        -1.27694
C         23.35356         3.38639        -1.49489
C         24.57032         1.28685        -1.09768
C         24.65678         4.11456        -1.72862
C         23.38567         6.28174        -1.60334
C         23.43422         7.67534        -1.78261
C         24.61452         5.53218        -1.15573
C         24.70048         8.37278        -1.82600
C         23.46765        10.50270        -2.17421
C         23.46493        11.91204        -2.39958
C         24.69094         9.79969        -2.00486
C         24.70068        12.61377        -2.38275
C         23.58589        14.64830        -3.16110
C         23.68077        16.04266        -3.46057
C         24.74039        14.01703        -2.63105
C         24.73942        16.84240        -3.07121
C         23.44487        18.98642        -2.60984
C         24.66089        18.35238        -3.28193
C         25.82466         1.97286        -0.99545
C         25.86624         3.38094        -1.20735
C         27.01408         1.30624        -0.62892
C         27.06202         4.10848        -1.00230
C         25.91905         6.25429        -1.42112
C         25.91463         7.67467        -1.67645
C         27.08742         5.54374        -1.27592
C         27.17930         8.38156        -1.69551
C         25.92421        10.51741        -1.95902
C         25.91854        11.93234        -2.08883
C         27.16726         9.83267        -1.79149
C         27.11888        12.67926        -1.91427
C         25.91900        14.77802        -2.39980
C         25.90568        16.19789        -2.54277
C         27.10936        14.10456        -1.99796
C         27.05968        16.94430        -2.18346
C         25.87830        19.04267        -2.72957
C         27.01392        18.39336        -2.24753
C         28.22153         2.02349        -0.37373
C         28.21965         3.45570        -0.54477
C         29.38551         1.34906         0.03995
C         29.40775         4.26798        -0.07226
C         28.41969         6.18920        -1.54346
C         28.36647         7.68876        -1.51508
C         29.56021         5.62216        -0.72998
C         29.66067         8.38496        -1.49038
C         28.35289        10.57645        -1.67207
C         28.33487        11.99960        -1.64033
C         29.65283         9.89984        -1.58138
C         29.52061        12.74579        -1.35141
C         28.28298        14.84638        -1.71326
C         28.24167        16.27751        -1.76483
C         29.48493        14.16337        -1.35135
C         29.39894        17.02219        -1.39276
C         28.17553        19.11514        -1.83550
C         29.35229        18.46283        -1.42477
C         30.60147         2.09967         0.49603
C         30.69470         3.43656        -0.24952
C         31.90767         1.35051         0.45578
C         31.95337         4.21281         0.06445
C         30.73627         6.31909        -0.54848
C         30.82397         7.73893        -0.85267
C         31.95849         5.64088        -0.10799
C         31.92429         8.49272        -0.47075
C         30.79542        10.64552        -1.03234
C         30.73010        12.06273        -0.98091
C         31.92353         9.95139        -0.55351
C         31.87392        12.80772        -0.58230
C         30.64321        14.91632        -0.96801
C         30.58005        16.34708        -0.97256
C         31.82911        14.24970        -0.56175
C         31.70931        17.09289        -0.52072
C         30.52272        19.18893        -1.05706
C         31.68260        18.54409        -0.61212
C         33.09396         2.05247         0.56173
C         33.11538         3.51017         0.39761
C         34.32987         1.39195         0.86801
C         34.34494         4.21372         0.57809
C         33.13820         6.36655         0.02129
C         33.13207         7.81051        -0.01553
C         34.45278         5.63541         0.10135
C         34.24974         8.53820         0.35095
C         33.03769        10.70831        -0.08718
C         33.03403        12.10670        -0.15742
C         34.10293         9.99197         0.70549
C         34.31612        12.88388         0.03400
C         32.93450        15.00938        -0.05522
C         32.84013        16.42250        -0.01792
C         34.12978        14.34106         0.39938
C         33.90482        17.23035         0.67724
C         32.87723        19.27253        -0.34099
C         34.02878        18.64334         0.15278
C         35.48981         2.11009         1.15606
C         35.49770         3.55645         1.01880
C         36.69269         1.45930         1.56758
C         36.68169         4.30036         1.36234
C         35.55591         6.40263         0.77862
C         35.53451         7.86878         0.63237
C         36.66424         5.75385         1.29239
C         36.67445         8.64767         1.22247
C         35.38058        10.78215         0.90340
C         35.34131        12.14984         0.86070
C         36.54148        10.10551         1.45753
C         36.35201        12.94338         1.64340
C         35.23075        15.06290         0.86666
C         35.22503        16.51447         0.82115
C         36.45040        14.39053         1.26163
C         36.38375        17.22785         1.00714
C         35.24738        19.31926         0.29062
C         36.43522        18.65645         0.72103
C         37.83067         2.18512         1.90275
C         37.82034         3.62995         1.83301
C         39.03184         1.52271         2.34428
C         38.98067         4.36860         2.25982
C         37.81135         6.49979         1.79482
C         37.79115         7.91092         1.84838
C         38.96436         5.80052         2.26339
C         38.89054         8.63716         2.35511
C         37.64225        10.81565         1.91028
C         37.66285        12.24429         1.84304
C         38.77304        10.12272         2.62615
C         38.84721        12.96387         2.03001
C         37.62028        15.07899         1.50596
C         37.58985        16.57956         1.64141
C         38.85431        14.39807         1.83325
C         38.89775        17.24559         1.32335
C         37.66473        19.31166         0.73418
C         38.90234        18.61549         0.96142
C         40.13381         2.23535         2.71878
C         40.13123         3.67451         2.69975
C         41.26720         4.41343         3.12521
C         40.11205         6.52638         2.70752
C         40.07226         7.96678         2.73675
C         41.25773         5.79258         3.12759
C         41.23155         8.75908         3.05561
C         40.08474        10.87047         2.55231
C         40.08361        12.26548         2.33868
C         41.24870        10.12934         2.89975
C         41.27565        13.05223         2.42003
C         40.06568        15.11393         1.87070
C         40.10275        16.53966         1.51603
C         41.26446        14.40739         2.19011
C         41.32152        17.22465         1.31199
C         40.14129        19.27424         0.78367
C         41.33233        18.57561         0.95729
O         22.56754        16.66677        -4.07905
O          9.00428        10.48875        -1.68553
O         36.62896         8.37842        -0.24515
O          8.51043         6.24647         1.72870
O         12.11806        13.77564        -1.99907
O         18.90017        11.38751        -0.19437
O         11.29064         3.82890        -2.17613
O         29.98751         9.07354        -2.76004
O         15.78631         7.03332        -2.89671
O         21.30267        14.48597        -3.92718
O         15.31738        16.66899         1.53104
H         16.24762        16.89439         1.74521
O         17.82463        14.06892         0.52328
H         18.44081        13.30508         0.59853
O         34.88778         5.52999        -1.31784
H         35.79676         5.15981        -1.31643
O          4.10197         3.72158         3.23499
H          4.95299         3.28393         3.45145
O         14.69782        14.50356        -2.69560
H         13.76347        14.24398        -2.89539
O         16.18387         3.48740         0.57363
H         16.88866         2.83656         0.78348
O         10.98554        16.70263         2.75892
H         10.28282        16.95617         3.40602
O         21.02539         7.83300         0.04087
H         20.94591         8.78755         0.25861
O         29.15891         4.59099         1.32274
H         29.39348         3.79750         1.86524
O         38.37590        10.20807         4.05708
H         39.11967         9.83756         4.57982
O          4.65253        10.10696        -1.10328
H          3.67671         9.96625        -1.20300
O         28.76522         5.83091        -2.94539
H         29.28912         6.57289        -3.31990
O         18.77208         1.70832        -3.14239
H         18.08590         2.12248        -3.70629
O         37.39549        16.79451         3.09664
H         36.65454        16.21456         3.37749
O          1.98999        10.28116        -0.47839
H          1.83000        11.24088        -0.60993
O         24.60201        18.60468        -4.72249
H         23.80551        18.13803        -5.06042
O         33.55044         9.94737         2.08586
H         33.39493        10.87435         2.36993
O          8.42178        16.70323         3.66201
H          8.46507        15.73654         3.83375
O         19.30305         1.47997         0.47076
H         19.61863         2.36394         0.75089
O         24.82011         4.24824        -3.17206
H         24.92498         3.35005        -3.54970
O         30.40365         2.36983         1.94459
H         30.27737         1.50426         2.38794
O         24.47819         5.38344         0.28879
H         24.33513         6.27288         0.67458
O          5.75924        16.72088         4.25430
H          6.69406        16.99636         4.41956
O         12.27425        18.78420        -1.28935
H         11.39845        18.38290        -1.47686
O         33.41751        17.37713         2.06575
H         34.05659        17.95562         2.53466
O         11.39571         7.84593         1.29285
H         10.65738         7.34562         1.70643
O         35.75202        12.99203         3.01631
H         35.98190        12.14502         3.45888
O         30.77828         3.09057        -1.65575
H         30.74031         3.92047        -2.17808
O         16.33305        10.60613         0.60284
H         17.23794        10.97564         0.75307
O         34.92242        12.94410        -1.31424
H         35.01737        12.02301        -1.63950
H          0.51223         1.59373         1.56762
H          0.47721         4.04662         1.30993
H          2.65436         0.33944         1.52352
H          0.44653         5.96712         1.61001
H          0.41437         8.39555         1.35663
H          0.50693        10.23705         2.03367
H          0.75021        12.53381         2.75550
H          0.70017        14.49698         2.61358
H          0.86369        16.91446         3.04764
H          2.20162        18.98577         3.18724
H          5.06020         0.37224         1.10083
H          4.33060        20.18724         2.81406
H          7.47273         0.37779         0.69745
H          6.68878        20.13500         2.15833
H          9.84429         0.33934         0.10906
H          8.99207        20.15695         1.50369
H         12.25303         0.30659        -0.54687
H         11.32112        20.25712         0.80420
H         14.62448         0.25435        -1.19068
H         13.96424        20.28211         0.38179
H         17.01702         0.23161        -1.70045
H         16.44055        20.22360         0.00574
H         19.62340         0.23178        -1.15099
H         18.86636        20.17322        -0.51513
H         22.07452         0.23949        -0.91139
H         21.33456        20.07482        -1.25493
H         24.54573         0.20253        -0.91272
H         23.61991        19.95608        -2.11644
H         26.99863         0.21693        -0.47750
H         25.89167        20.14242        -2.78902
H         29.35624         0.25463         0.16080
H         28.15584        20.21509        -1.86629
H         31.90125         0.26179         0.62555
H         30.51061        20.28710        -1.12646
H         34.33762         0.29472         0.95147
H         32.90903        20.34698        -0.57943
H         36.70580         0.36155         1.64296
H         35.31323        20.37546        -0.01357
H         39.04156         0.42340         2.37810
H         37.70659        20.37981         0.47230
H         41.04332         1.71696         3.05619
H         42.16149         3.86993         3.46313
H         42.15298         6.32647         3.47348
H         42.16706         8.25648         3.33492
H         42.20481        10.65381         3.03888
H         42.22972        12.56854         2.66979
H         42.21294        14.95644         2.26347
H         42.28087        16.70367         1.43054
H         40.15567        20.33682         0.50210
H         42.29341        19.08859         0.81169
