         429
 CSIRO Nanostructure Databank - Neutral Graphene Oxide Data Set
C          1.66358         2.35788        -3.11090
C          1.71076         3.71853        -3.23563
C          2.81225         1.59207        -2.75416
C          3.03017         4.44458        -3.10123
C          1.81566         6.70908        -3.08094
C          1.83291         8.09734        -2.92309
C          2.94975         5.93786        -2.80259
C          2.97747         8.77907        -2.47772
C          1.88541        11.04434        -2.75099
C          1.91675        12.42252        -2.63911
C          2.97167        10.24291        -2.30812
C          2.99414        13.09358        -2.00939
C          2.06693        15.36576        -2.49525
C          2.08098        16.74373        -2.33750
C          3.03333        14.53342        -1.86618
C          3.02104        17.36114        -1.49282
C          2.99645        18.78485        -1.25273
C          3.99106         2.22255        -2.32464
C          3.90260         3.71923        -2.05208
C          5.16789         1.51004        -2.07004
C          5.25986         4.35177        -1.93173
C          4.11308         6.60092        -2.35391
C          4.13879         8.01004        -2.17113
C          5.34367         5.82231        -2.11575
C          5.29699         8.65387        -1.56809
C          4.05942        10.89311        -1.70764
C          4.06387        12.30766        -1.48380
C          5.28338        10.12575        -1.40907
C          5.10459        12.94660        -0.73955
C          4.05770        15.13647        -1.08769
C          4.01852        16.55893        -0.84711
C          5.09269        14.32862        -0.50410
C          4.87752        17.13977         0.09611
C          3.75803        19.35260        -0.29026
C          4.67765        18.55605         0.59187
C          6.38035         2.15639        -1.65154
C          6.35914         3.62140        -1.59186
C          7.54783         1.45120        -1.41282
C          7.64585         4.33382        -1.39075
C          6.54002         6.54270        -1.54107
C          6.39811         7.94513        -1.14403
C          7.51372         5.70079        -0.73454
C          7.42213         8.49254        -0.20819
C          6.36459        10.78382        -0.62521
C          6.15477        12.14589        -0.00813
C          7.37582         9.95534         0.09509
C          7.50366        12.87529         0.05054
C          6.12604        14.93055         0.32027
C          5.93163        16.33463         0.71830
C          7.31698        14.26062         0.64350
C          7.12595        17.07120         1.29453
C          6.03681        19.21149         0.62953
C          7.18680        18.51795         0.96102
C          8.75167         2.10148        -0.77890
C          8.88236         3.56552        -1.15564
C         10.06491         1.36387        -0.82278
C         10.10298         4.29904        -0.68261
C          8.80933         6.42125        -0.41648
C          8.71895         7.78259        -0.00902
C          9.99677         5.71159        -0.23236
C          9.81197         8.43661         0.57372
C          8.56080        10.66194         0.62565
C          8.57844        12.03303         0.72924
C          9.61220         9.78709         1.26820
C          9.69262        12.71917         1.35269
C          8.42502        14.86262         1.30044
C          8.40300        16.34021         1.72224
C          9.60247        14.11529         1.57937
C          9.70023        17.01467         1.28338
C          8.45641        19.13918         0.95886
C          9.68978        18.45329         1.06051
C         11.22667         1.99247        -0.33045
C         11.28382         3.48496        -0.28520
C         12.33632         1.27284         0.10740
C         12.40216         4.16503         0.40273
C         11.13761         6.35307         0.32722
C         11.04807         7.72568         0.73269
C         12.35642         5.61721         0.54548
C         12.19584         8.36893         1.29736
C         10.88609        10.55732         1.51709
C         10.86963        11.92669         1.68871
C         12.10271         9.75813         1.79248
C         12.11474        12.62882         2.11881
C         10.76066        14.91160         2.18449
C         10.85172        16.23564         1.43946
C         12.09548        14.14253         2.21084
C         12.13247        16.68091         1.03428
C         10.85057        19.28539         1.11112
C         12.14207        18.81174         0.83472
C         13.44277         1.90608         0.90523
C         13.49600         3.41516         0.75725
C         14.78294         1.27258         0.63702
C         14.78134         4.08209         0.96243
C         13.48420         6.30774         1.01317
C         13.43341         7.69298         1.36538
C         14.77177         5.60654         1.06058
C         14.67729         8.39721         1.64501
C         13.42445        10.50086         2.00723
C         13.42618        11.96685         1.96638
C         14.69336         9.78967         1.81088
C         14.61969        12.67935         2.05648
C         13.38159        14.82819         1.95891
C         13.37747        16.20481         1.50634
C         14.57689        14.12796         2.01928
C         14.57437        16.98748         1.39711
C         13.39897        19.26573         1.22684
C         14.57208        18.43176         1.20567
C         15.97260         1.92585         0.95376
C         15.95574         3.30473         1.35456
C         17.25392         1.27728         0.83117
C         17.14657         3.98168         1.84983
C         15.94332         6.28959         1.59102
C         15.92786         7.68098         1.69710
C         17.15008         5.52016         1.90933
C         17.17051         8.39208         1.86384
C         15.91673        10.52159         1.90868
C         15.90249        11.97291         2.03130
C         17.13859         9.80757         1.93489
C         17.10976        12.68798         2.03466
C         15.82446        14.91882         2.11564
C         15.82851        16.34650         1.69503
C         17.12896        14.15763         2.21844
C         17.03822        17.03459         1.56810
C         15.80460        19.10624         1.15174
C         17.04265        18.43062         1.21500
C         18.45061         1.91350         1.14264
C         18.48269         3.23397         1.89166
C         19.68852         1.27895         0.92134
C         19.67850         4.09689         1.49226
C         18.43122         6.23675         1.78442
C         18.40412         7.65195         1.79111
C         19.63387         5.49768         1.55040
C         19.67144         8.36122         1.76920
C         18.39861        10.56452         2.07903
C         18.37284        12.03154         1.85780
C         19.69605         9.82693         1.99526
C         19.54849        12.71951         1.54904
C         18.42257        14.88904         2.00251
C         18.35529        16.38509         1.73572
C         19.59905        14.14889         1.50458
C         19.54631        17.03364         1.16823
C         18.25228        19.11441         0.97229
C         19.50541        18.44048         0.90294
C         20.91951         1.97098         1.06519
C         20.90934         3.41165         1.23886
C         22.14068         1.28625         0.94855
C         22.14566         4.11416         1.15963
C         20.84359         6.27559         1.07991
C         20.84843         7.69825         1.57340
C         22.15735         5.54975         1.23482
C         22.12849         8.44410         1.66078
C         20.89849        10.56038         1.53252
C         20.74008        11.95614         1.00833
C         22.09019         9.90067         1.38884
C         22.02637        12.73338         0.99371
C         20.74883        14.83924         1.08328
C         20.74454        16.29860         0.98382
C         21.96327        14.10101         0.81474
C         21.91988        17.00393         0.64385
C         20.70000        19.13271         0.62645
C         21.94700        18.44636         0.58397
C         23.38731         1.96535         0.99282
C         23.37987         3.41173         1.05926
C         24.60790         1.27528         0.96196
C         24.60950         4.11765         0.98394
C         23.35273         6.24190         1.21639
C         23.39869         7.70693         1.42130
C         24.60586         5.56491         1.01753
C         24.59704         8.45566         0.99913
C         23.31165        10.59023         1.02963
C         23.28847        12.00627         0.90893
C         24.55017         9.87934         0.88583
C         24.50308        12.71154         0.77193
C         23.18641        14.76736         0.21182
C         23.14477        16.28879         0.25747
C         24.45566        14.21475         0.90229
C         24.43537        17.03995         0.30055
C         23.16375        19.15127         0.52443
C         24.47189        18.46762         0.79553
C         25.85934         1.96535         1.01433
C         25.84386         3.41918         0.95145
C         27.07402         1.29675         1.08709
C         27.06610         4.13306         0.80244
C         25.77321         6.29663         0.79481
C         25.78183         7.73821         0.76990
C         26.99736         5.56235         0.31919
C         27.00324         8.45620         0.53398
C         25.74973        10.59026         0.59276
C         25.73143        12.02941         0.56843
C         26.98784         9.87346         0.44525
C         26.92950        12.75786         0.31606
C         25.72117        14.90378         0.45345
C         25.71471        16.28965         0.31232
C         26.93420        14.17633         0.27733
C         26.89626        17.02286         0.05548
C         25.67433        19.16724         0.21086
C         26.84024        18.46838        -0.07180
C         28.33996         2.04938         1.37917
C         28.29876         3.47823         0.88195
C         29.59940         1.32899         0.99935
C         29.52270         4.18028         0.66838
C         28.27442         6.32930         0.52360
C         28.25024         7.74911         0.46650
C         29.49441         5.63478         0.53746
C         29.46971         8.47991         0.38852
C         28.21348        10.58212         0.25009
C         28.15255        12.02652        -0.16777
C         29.44459         9.91021         0.26908
C         29.43548        12.78793         0.04960
C         28.14615        14.90244         0.02418
C         28.12746        16.32367        -0.08087
C         29.39840        14.20534        -0.03230
C         29.32645        17.04887        -0.37018
C         28.05633        19.13935        -0.45318
C         29.25379        18.46538        -0.58834
C         30.76884         2.02438         0.76089
C         30.74867         3.47662         0.66004
C         32.02780         1.35641         0.56451
C         31.99145         4.17464         0.54583
C         30.70569         6.36647         0.41881
C         30.70706         7.77497         0.34316
C         31.95228         5.61805         0.22305
C         31.95092         8.51667         0.31501
C         30.70151        10.64126         0.24719
C         30.66578        12.10524         0.15173
C         31.90596         9.95873         0.34810
C         31.87078        12.84569         0.13416
C         30.60746        14.94965        -0.16836
C         30.57361        16.35653        -0.41303
C         31.85728        14.25313        -0.12390
C         31.78872        17.07072        -0.66939
C         30.47999        19.23704        -1.03025
C         31.78477        18.47694        -0.92100
C         33.22174         2.06765         0.52849
C         33.20478         3.50397         0.62997
C         34.47098         1.44283         0.17408
C         34.48897         4.23734         0.94015
C         33.25069         6.38602         0.10851
C         33.18753         7.85681         0.28317
C         34.48421         5.67132         0.46548
C         34.41748         8.60193         0.23524
C         33.18374        10.68504         0.72075
C         33.15436        12.17153         0.40085
C         34.44675         9.98180         0.24454
C         34.41850        12.84034        -0.09359
C         33.05136        14.96390        -0.41302
C         33.03196        16.36287        -0.68688
C         34.27694        14.19552        -0.68944
C         34.24199        17.08476        -0.91067
C         32.97458        19.15572        -1.13374
C         34.23780        18.48363        -1.12492
C         35.67805         2.11649         0.09796
C         35.77379         3.51015         0.53401
C         36.76416         1.46444        -0.65931
C         36.96821         4.22539         0.61278
C         35.66457         6.45316         0.62635
C         35.66426         7.82525         0.04235
C         37.04559         5.70613         0.69584
C         36.95822         8.53690        -0.15606
C         35.67380        10.69741        -0.08708
C         35.64368        12.07437        -0.34318
C         36.92191        10.00402        -0.22206
C         36.80040        12.71622        -1.07461
C         35.55929        14.92178        -0.98716
C         35.52705        16.38989        -0.81087
C         36.85006        14.22039        -0.95194
C         36.82776        17.13097        -1.11020
C         35.45016        19.17159        -1.45031
C         36.68956        18.52823        -1.55857
C         38.07911         1.63433        -0.35701
C         38.26442         3.60547         0.55231
C         39.25926         1.46139        -1.19884
C         39.42332         4.21218         0.14138
C         38.24046         6.38967         0.22405
C         38.24949         7.81989         0.02524
C         39.44028         5.65028        -0.04539
C         39.42121         8.50460        -0.20077
C         38.13791        10.71712        -0.41259
C         38.12589        12.06858        -0.77336
C         39.42078         9.98114        -0.32526
C         39.31216        12.77038        -1.19143
C         38.01793        14.90807        -1.26677
C         38.00505        16.33515        -1.48952
C         39.24961        14.16647        -1.50837
C         39.09701        16.98571        -2.07709
C         37.83371        19.12974        -2.13686
C         39.01403        18.40369        -2.37144
C         40.37267         2.22607        -1.09041
C         40.64966         3.33119        -0.05644
C         41.84764         4.15217        -0.45227
C         40.65258         6.30169        -0.30628
C         40.76907         7.80793        -0.17875
C         41.83782         5.50956        -0.50762
C         41.68310         8.43038        -1.22200
C         40.64835        10.65754        -0.91825
C         40.52893        12.06179        -1.38438
C         41.65870         9.74359        -1.50303
C         41.62752        12.73382        -1.94780
C         40.37520        14.83156        -2.05006
C         40.30524        16.25667        -2.37635
C         41.55381        14.08118        -2.27796
C         41.37516        16.94499        -2.94417
C         40.14670        19.04270        -2.95980
C         41.29108        18.32653        -3.23496
O          6.03917        16.66199         2.18144
O          6.88945         5.47716         0.51120
O         15.12700         4.94232        -0.21669
O          6.80546         8.99135         1.05431
O          6.48272         6.26119        -2.95605
O          8.55440         4.03324        -2.50119
O         16.93843         4.69779         3.13302
O         22.96939         8.06807         2.81201
O         34.01837        12.91159         1.33856
O         36.38150        16.86665         0.26873
O         12.16985        17.64154         0.02759
O         38.33313         2.23995         0.89616
O         11.19627         4.07654        -1.64364
O         12.09114        13.31355         3.42274
O         19.17018        10.23104         3.30902
O         23.73516        16.88306        -0.97645
O         36.21057         7.90250        -1.31215
O         36.41361         6.30645         1.88957
O         18.68355        15.83631         3.07239
O          6.48330        10.75773        -2.06628
O         40.46121        10.57869         0.54477
O         16.45639        14.63769         3.42093
O         32.55365         5.89530        -1.10567
O         34.70839        14.38362        -2.08998
O         12.64340         9.95550         3.13590
O         27.99477        11.97754        -1.64626
H         28.75110        11.46357        -2.00230
O         10.47751        15.22528         3.55864
H         10.72956        14.43586         4.09091
O         24.28386        14.52945         2.31618
H         25.05585        14.17928         2.80778
O          9.09044         9.44041         2.59323
H          8.17861         9.08576         2.44718
O         36.57238        12.45322        -2.51830
H         35.80115        13.01605        -2.78014
O         20.40913        11.76888        -0.43733
H         20.93799        12.41601        -0.95408
O          3.68109         4.34134        -4.39557
H          3.81894         3.38995        -4.58875
O          3.22733         3.89408        -0.77634
H          3.85423         3.65099        -0.06262
O         18.72649         2.85881         3.27624
H         18.33005         3.57185         3.83091
O          8.37828        16.42676         3.16482
H          7.47290        16.17213         3.45097
O         30.56687        20.48869        -0.33431
H         30.72304        20.30098         0.61376
O         24.65671        18.39407         2.25549
H         24.66556        19.31025         2.60338
O          7.93634        13.07289        -1.32011
H          8.81859        13.49745        -1.30701
O         34.52753         4.29986         2.41367
H         35.27134         4.90868         2.64776
O         40.99464         2.67202         1.18816
H         40.17994         2.21146         1.49699
O         33.22994        10.57863         2.18047
H         33.76617        11.34411         2.49449
O         20.67987         6.38606        -0.39071
H         19.79154         6.76642        -0.56182
O         28.38585         2.15373         2.86799
H         27.57141         2.62701         3.14465
O         41.38814         8.05449         1.12187
H         41.30610         9.02757         1.28035
O         13.11984         1.63937         2.32837
H         13.90400         1.88881         2.86268
O          4.08047        18.52378         1.92444
H          4.65738        17.93787         2.47096
O          8.44903         2.16147         0.67128
H          8.32049         1.24431         0.99370
O         23.19624        14.36035        -1.17307
H         23.55254        15.12336        -1.68903
O          5.72495        11.96782         1.36135
H          4.91660        11.41499         1.37486
O         26.83599         5.47203        -1.15101
H         27.62596         5.00715        -1.50127
H          0.72696         1.82308        -3.32844
H          0.81863         4.25571        -3.58880
H          2.77461         0.49513        -2.83089
H          0.89601         6.23654        -3.45198
H          0.91643         8.65454        -3.15915
H          1.01731        10.57867        -3.23575
H          1.06867        12.99754        -3.03448
H          1.29706        14.91797        -3.13745
H          1.32700        17.36101        -2.84652
H          2.30302        19.39749        -1.84863
H          5.17197         0.41754        -2.21367
H          3.68486        20.43256        -0.09396
H          7.54239         0.35424        -1.52174
H          6.13132        20.25712         0.29850
H         10.05429         0.26373        -0.90197
H          8.48905        20.22968         0.81394
H         12.32323         0.17312         0.04335
H         10.71351        20.33327         1.41637
H         14.81626         0.22109         0.31528
H         13.51403        20.29651         1.59278
H         17.28446         0.26586         0.39762
H         15.80537        20.19427         0.99046
H         19.70317         0.23403         0.57456
H         18.21907        20.19455         0.76690
H         22.13226         0.19187         0.83472
H         20.67839        20.22518         0.50576
H         24.60724         0.17534         0.93924
H         23.13599        20.25193         0.50162
H         27.09070         0.19726         1.13245
H         25.65895        20.26348         0.10630
H         29.61891         0.23099         1.07299
H         28.03686        20.22933        -0.60157
H         32.04096         0.25936         0.48309
H         30.33559        19.50071        -2.11665
H         34.43352         0.39368        -0.15708
H         32.94599        20.23950        -1.31963
H         36.47595         0.89425        -1.55584
H         35.38200        20.23291        -1.73350
H         39.19435         0.73151        -2.02240
H         37.78956        20.18750        -2.43710
H         41.18714         2.02799        -1.80711
H         42.79205         3.61007        -0.61078
H         42.78313         6.03453        -0.71039
H         42.43797         7.79510        -1.70921
H         42.35520        10.15249        -2.25067
H         42.57336        12.19782        -2.10810
H         42.44419        14.56452        -2.70091
H         42.31333        16.42462        -3.17842
H         40.09179        20.11611        -3.19087
H         42.15797        18.82894        -3.68631
