         244
 CSIRO Nanostructure Databank - Neutral Graphene Oxide Data Set
C          1.33573         2.18828         0.69976
C          1.25089         3.59962         0.47209
C          2.47688         1.47080         0.44350
C          2.29815         4.30275        -0.08059
C          1.13742         6.51564        -0.23437
C          1.15820         7.94636        -0.41900
C          2.26724         5.74032        -0.33198
C          2.27616         8.63010        -0.80208
C          1.11619        10.86590        -0.73913
C          1.20780        12.12261        -0.23012
C          2.30451        10.09508        -1.22799
C          2.45614        12.80478        -0.06797
C          1.31761        14.92072         0.69051
C          1.37568        16.19980         1.22302
C          2.50174        14.16243         0.42669
C          2.61083        16.80862         1.52461
C          2.71099        18.15105         2.04899
C          3.64981         2.11249        -0.08288
C          3.50923         3.53649        -0.47480
C          4.86654         1.46214        -0.17667
C          4.77531         4.25230        -0.81089
C          3.55570         6.46052        -0.54989
C          3.51678         7.86612        -1.05485
C          4.84522         5.73574        -0.70091
C          4.81991         8.58030        -1.30668
C          3.62948        10.74826        -0.86481
C          3.67329        12.09264        -0.39167
C          4.83767        10.04651        -1.07450
C          4.93568        12.70068        -0.19399
C          3.74673        14.77688         0.67848
C          3.81662        16.09163         1.23759
C          5.02764        13.99853         0.55215
C          5.06859        16.68367         1.52526
C          3.90062        18.71388         2.38025
C          5.20645        17.97313         2.29084
C          6.12165         2.11268        -0.48937
C          6.06363         3.52960        -0.82104
C          7.30698         1.41147        -0.23002
C          7.13379         4.23846        -1.31709
C          6.07861         6.43618        -1.14528
C          6.11401         7.84254        -1.19833
C          7.27183         5.69205        -1.29674
C          7.34690         8.50289        -1.29754
C          6.09272        10.67263        -0.93975
C          6.14428        12.02847        -0.52474
C          7.35024        10.00107        -1.46158
C          7.41747        12.69962        -0.45864
C          6.17729        14.87633         0.08609
C          6.24842        16.17875         0.81838
C          7.39755        14.19911        -0.55723
C          7.56345        16.73743         1.29737
C          6.32693        18.81813         1.72499
C          7.51900        18.25310         1.32188
C          8.64188         1.94350        -0.04913
C          8.92803         3.26870        -0.61549
C          9.63630         1.16915         0.53893
C          9.74507         4.32796        -0.28651
C          8.53024         6.34745        -1.29397
C          8.58086         7.77628        -1.31184
C          9.81922         5.52411        -1.23950
C          9.83872         8.49839        -1.36574
C          8.63843        10.63455        -0.99230
C          8.63333        12.02213        -0.69934
C          9.86116         9.90485        -1.15022
C          9.90224        12.74173        -0.56891
C          8.71463        14.89007        -0.18884
C          8.74248        16.20539         0.52622
C          9.94760        14.08228        -0.24390
C         10.02665        16.85589         0.92053
C          8.71612        18.97637         1.02856
C          9.96579        18.34279         0.86024
C         10.86941         1.79912         0.98472
C         10.84793         4.05986         0.60180
C         12.17444         1.45004         0.92171
C         12.11573         4.52462         0.31916
C         11.05080         6.35486        -0.94252
C         11.12601         7.71188        -1.60003
C         12.17822         5.74219        -0.46363
C         12.37273         8.47516        -1.18022
C         11.10661        10.64638        -1.09203
C         11.14608        12.01420        -0.81794
C         12.36491         9.93560        -1.54435
C         12.37471        12.77722        -0.91020
C         11.25403        14.61112         0.32837
C         11.29384        16.11730         0.63167
C         12.42230        14.10463        -0.48621
C         12.45737        16.93290         0.24522
C         11.17909        19.02984         0.70265
C         12.40797        18.36800         0.40986
C         13.25823         2.43355         1.37166
C         13.35235         3.63652         0.38037
C         14.57607         1.72173         1.46677
C         14.64139         4.44096         0.46770
C         13.52497         6.32631        -0.80262
C         13.49079         7.84186        -0.76110
C         14.69879         5.70310        -0.08204
C         14.69195         8.60650        -0.24481
C         13.64238        10.66655        -1.20188
C         13.61169        12.14521        -1.52547
C         14.77105        10.02410        -0.78647
C         14.86498        12.85848        -1.10720
C         13.59532        14.90570        -0.60587
C         13.57610        16.30268        -0.31012
C         14.85005        14.23174        -0.88972
C         14.76225        17.12632        -0.60936
C         13.59182        19.12777         0.23849
C         14.80755        18.53695        -0.16898
C         15.78905         2.38005         1.31018
C         15.84338         3.75823         0.88043
C         17.00772         1.68676         1.58970
C         17.10394         4.41759         0.81796
C         16.02635         6.36063        -0.35715
C         16.00120         7.85993        -0.32731
C         17.19035         5.76460         0.37731
C         17.20652         8.54854        -0.24853
C         16.07360        10.68302        -0.77047
C         16.15245        12.11607        -1.28418
C         17.23178         9.98760        -0.51591
C         17.32744        12.86206        -0.70719
C         16.08510        14.94282        -0.74353
C         16.09254        16.39942        -0.76871
C         17.29711        14.22878        -0.55133
C         17.33488        17.13036        -0.48278
C         16.02469        19.22733        -0.22806
C         17.28614        18.56420        -0.39474
C         18.24338         2.33326         1.53644
C         18.30249         3.72049         1.18026
C         19.46488         1.62953         1.82554
C         19.55852         4.38903         1.13023
C         18.40878         6.48402         0.44635
C         18.42560         7.86166         0.09660
C         19.62524         5.78495         0.82672
C         19.64939         8.64309         0.33527
C         18.55800        10.68887        -0.75829
C         18.50517        12.10439        -0.16806
C         19.77188         9.99682        -0.19773
C         19.80966        12.84647        -0.36475
C         18.51248        14.95316        -0.01233
C         18.52997        16.43232        -0.32603
C         19.80883        14.24824        -0.33858
C         19.76557        17.13924        -0.30099
C         18.50348        19.25972        -0.30060
C         19.74044        18.57337        -0.30770
C         20.67162         2.26498         1.75133
C         20.75421         3.65611         1.40591
C         21.99796         4.31401         1.33352
C         20.88903         6.42326         0.81599
C         20.95446         7.89882         0.68741
C         22.05875         5.67135         1.04549
C         22.19887         8.59955         0.35489
C         20.98080        10.66488        -0.19379
C         21.01725        12.11630        -0.44697
C         22.19992         9.92377         0.04585
C         22.21180        12.84362        -0.61198
C         21.02178        14.97183        -0.43247
C         21.01690        16.43961        -0.33662
C         22.21025        14.23563        -0.61996
C         22.19719        17.18376        -0.31268
C         20.97624        19.28233        -0.27627
C         22.17237        18.59396        -0.26923
O         20.15098         8.54704         1.72316
O          5.89523        16.10191        -0.63450
O          8.71899        16.19249        -0.92907
O         10.60520         3.08122         1.56838
O          4.01614         8.06875        -2.43607
O          8.19374         3.47614        -1.79758
O         10.81895        16.35250         2.02638
O          4.44187         6.27144         0.62432
O         15.34149        16.92442        -1.93068
O          3.88487         3.79897        -1.89198
O         18.37878        14.86064         1.45978
H         19.15153        15.32092         1.85281
O         14.43925         8.75866         1.20065
H         15.19634         9.25201         1.58358
O         18.76713        10.78023        -2.18836
H         17.96106        11.17734        -2.60419
O          7.23119        14.39384        -1.99109
H          7.18465        15.37076        -2.12245
O          5.43287        13.63330         1.92923
H          4.77479        12.99170         2.27167
O         13.56837        12.29248        -2.99106
H         12.97884        11.57061        -3.33274
O          7.75062        16.24442         2.64580
H          7.09245        16.70358         3.23209
O         10.05412         5.01018        -2.58355
H         10.23871         5.79502        -3.15230
O         12.30124         9.95901        -3.02282
H         11.75929         9.17625        -3.31230
O         18.27366        11.97886         1.26419
H         18.26227        12.89664         1.63325
O         16.32486         6.01794        -1.82361
H         16.63050         5.08375        -1.83202
O         13.39853         3.03393        -0.94886
H         13.37759         3.76625        -1.60674
O          5.60504        17.62696         3.69731
H          4.87518        17.09605         4.08319
O         16.35689        12.02741        -2.75226
H         15.45178        12.05402        -3.16335
O         13.69081         5.97999        -2.23744
H         14.66459         6.08074        -2.42988
O         11.27076         7.46776        -3.05682
H         12.10915         6.94448        -3.13960
O          7.32205        10.24578        -2.91836
H          7.33150        11.21854        -3.05180
O         12.98587         2.92844         2.70162
H         12.02476         3.14969         2.73779
O         11.40591        13.92396         1.60929
H         11.04053        14.53099         2.29797
O          2.21495        10.08284        -2.68682
H          2.89241         9.43563        -3.00791
H          0.45838         1.67868         1.12232
H          0.32497         4.11729         0.76060
H          2.51665         0.39496         0.66865
H          0.16585         6.04918        -0.01775
H          0.20878         8.48014        -0.27071
H          0.12215        10.42345        -0.89488
H          0.27952        12.63432         0.05971
H          0.33110        14.49206         0.47089
H          0.44360        16.75132         1.41463
H          1.78040        18.72627         2.17214
H          4.91018         0.40387         0.12716
H          3.92751        19.73571         2.78778
H          7.17984         0.36468         0.09391
H          6.19268        19.91056         1.69471
H          9.44572         0.10639         0.75459
H          8.68270        20.07685         1.05080
H         12.47510         0.49586         0.46736
H         11.17971        20.13003         0.73215
H         14.57918         0.67393         1.80567
H         13.56582        20.20666         0.45290
H         16.95977         0.62674         1.88082
H         16.03457        20.30482        -0.00385
H         19.40768         0.56588         2.09833
H         18.49881        20.35696        -0.22139
H         21.60279         1.72010         1.96438
H         22.92107         3.75188         1.53409
H         23.03787         6.16928         1.03197
H         23.14734         8.04385         0.36019
H         23.16264        10.42384        -0.13119
H         23.17081        12.31876        -0.72146
H         23.16803        14.75959        -0.74195
H         23.17263        16.67930        -0.33193
H         20.96420        20.38156        -0.26501
H         23.12334        19.14437        -0.24586
