         404
 CSIRO Nanostructure Databank - Neutral Graphene Oxide Data Set
C          1.29287         5.05640         3.93335
C          0.16086         5.90498         3.93078
C          1.06786         7.28716         2.09670
C          0.08707         7.03529         3.14731
C          1.13590         8.60947         1.40473
C         -0.03668         9.38288         1.26107
C          1.14004        10.99257        -0.13070
C         -0.04704        10.52021         0.46852
C          1.15935        12.15553        -0.99644
C         -0.04032        12.59285        -1.59287
C          1.19053        14.29892        -2.75994
C         -0.00704        13.61524        -2.52972
C          1.16205        16.53075        -3.08959
C         -0.03772        17.25097        -3.00383
C          1.18234        19.13698        -2.09502
C         -0.04018        18.51158        -2.41825
C          1.22198        20.49471        -1.53305
C          0.04513        21.13277        -1.06518
C          1.29984        23.12206        -0.39147
C          0.08754        22.39735        -0.50600
C          1.34089        24.44882         0.18811
C          0.21419        25.12623         0.64790
C          1.36825        27.29568         0.85103
C          0.23150        26.49852         0.97675
C          1.35286        28.73448         0.96565
C          0.16909        29.41583         1.33196
C          1.31708        31.56538         1.32014
C          0.15375        30.78487         1.51404
C          1.30583        32.99374         1.54337
C          0.15414        33.65097         2.05264
C          1.29844        35.79466         2.09067
C          0.14522        35.00692         2.31910
C          1.31489        37.19379         2.37556
C          3.68547         4.75569         3.40537
C          2.43588         5.37555         3.18800
C          3.59674         6.95885         1.59721
C          2.34549         6.41896         2.15291
C          3.52936         8.18006         0.76008
C          2.32435         9.04480         0.79696
C          3.58733        10.93010        -0.27510
C          2.35624        10.29872         0.10580
C          3.62643        12.19959        -0.88179
C          2.39425        12.79834        -1.31194
C          3.62317        14.78739        -2.21925
C          2.40678        14.00284        -2.09532
C          3.63673        16.22520        -2.52417
C          2.38771        17.03021        -2.62141
C          3.64114        19.16463        -2.43988
C          2.38448        18.41312        -2.30998
C          3.66979        20.57712        -1.94409
C          2.44244        21.18420        -1.39006
C          3.74714        23.23507        -0.88395
C          2.49910        22.50369        -0.85920
C          3.80175        24.58167        -0.41864
C          2.63873        25.12697         0.29185
C          3.81621        27.44028         0.18515
C          2.66039        26.64034         0.62130
C          3.75868        28.85352         0.30695
C          2.54269        29.49499         0.73589
C          3.68786        31.68912         0.60569
C          2.51653        30.91299         0.90057
C          3.65622        33.11566         0.77907
C          2.48005        33.75601         1.27461
C          3.60539        35.96766         1.30349
C          2.46786        35.17277         1.55570
C          3.64025        37.34565         1.65624
C          2.44864        37.94273         2.17903
C          6.10180         4.59398         3.08371
C          4.85975         5.19344         2.76054
C          6.04738         6.81365         1.21604
C          4.79608         6.34344         1.86745
C          6.12646         8.19258         0.70293
C          4.84339         8.83503         0.37686
C          6.15995        10.94364        -0.22989
C          4.84032        10.30068         0.14578
C          6.11036        12.17792        -1.02544
C          4.87901        12.82498        -1.25344
C          6.10607        14.74785        -2.14580
C          4.85904        14.13341        -1.88011
C          6.13872        16.14267        -2.69919
C          4.84413        16.90482        -2.52564
C          6.08166        18.98640        -1.85082
C          4.93776        18.41184        -2.73153
C          6.15956        20.50261        -1.76469
C          4.97063        21.20799        -1.64340
C          6.18900        23.28569        -1.25872
C          4.95700        22.58583        -1.27942
C          6.12142        24.75401        -1.21574
C          4.94222        25.38585        -0.59955
C          6.16816        27.57155        -0.56274
C          4.97127        26.78807        -0.31431
C          6.13902        28.98318        -0.40184
C          4.91443        29.64363         0.00026
C          5.99508        31.88126        -0.41567
C          4.86017        31.04861         0.13149
C          6.04283        33.28992         0.12877
C          4.84023        33.88643         0.52123
C          6.06335        36.15011         0.63571
C          4.76408        35.35203         0.65441
C          6.07600        37.48956         1.25441
C          4.85619        38.08081         1.61499
C          8.56301         4.55757         3.02892
C          7.33653         5.06537         2.59744
C          8.60412         6.87694         1.33733
C          7.35011         6.14444         1.58622
C          8.59481         8.09802         0.62769
C          7.33842         8.79032         0.36990
C          8.54929        10.65736        -0.74646
C          7.37946        10.11767        -0.22185
C          8.55125        11.94893        -1.37690
C          7.35218        12.69347        -1.52004
C          8.57303        14.74106        -2.20980
C          7.34289        14.05467        -2.01763
C          8.60469        16.17438        -2.23581
C          7.39863        16.87605        -2.27080
C          8.65323        19.09354        -2.04101
C          7.37599        18.34383        -2.28454
C          8.64588        20.50701        -1.62491
C          7.41594        21.19024        -1.58771
C          8.66834        23.34551        -1.36847
C          7.41129        22.61937        -1.41191
C          8.67765        24.77027        -1.29310
C          7.40890        25.51778        -1.29226
C          8.60083        27.65244        -1.00553
C          7.39774        26.93369        -0.89230
C          8.54557        29.07103        -0.92441
C          7.33704        29.73877        -0.62534
C          8.50244        31.91223        -0.40780
C          7.32868        31.17496        -0.43605
C          8.51550        33.31560        -0.06397
C          7.28500        34.01210         0.14271
C          8.51765        36.08868         0.69438
C          7.31933        35.39781         0.51958
C          8.54070        37.44128         1.21340
C          7.32243        38.10333         1.48467
C         11.01383         4.52509         2.97273
C          9.80085         5.09346         2.56495
C         11.05978         6.83457         1.30033
C          9.82029         6.27712         1.73472
C         11.05673         8.03340         0.49215
C          9.82776         8.65941         0.19005
C         11.12884        10.52637        -1.00279
C          9.79884         9.85328        -0.68296
C         11.11734        11.94205        -1.43296
C          9.82726        12.50147        -1.88263
C         11.12098        14.74530        -2.15230
C          9.84083        14.01768        -2.26103
C         11.11683        16.19444        -2.17935
C          9.88535        16.85647        -2.14478
C         11.14226        19.03046        -1.57413
C          9.84997        18.27416        -1.76225
C         11.11527        20.50577        -1.55340
C          9.90319        21.19525        -1.48345
C         11.13463        23.36698        -1.41910
C          9.89402        22.64422        -1.38474
C         11.12380        24.79572        -1.39818
C          9.88234        25.49582        -1.27016
C         11.06090        27.64707        -1.33889
C          9.86035        26.94602        -1.22310
C         11.04536        29.12199        -1.44172
C          9.74662        29.84640        -1.26627
C         11.05591        31.95445        -0.52605
C          9.76845        31.32358        -0.89810
C         11.01360        33.29450        -0.01515
C          9.76577        33.98000         0.07074
C         11.09344        36.06587         0.86168
C          9.76420        35.41682         0.33761
C         10.98922        37.34550         1.59785
C          9.76802        38.03177         1.62002
C         13.46861         4.53700         3.09118
C         12.25070         5.05456         2.54077
C         13.54214         6.64175         1.11769
C         12.26247         6.17273         1.65854
C         13.57030         7.92113         0.34018
C         12.30841         8.64356         0.09581
C         13.59959        10.66179        -0.55392
C         12.36684         9.91706        -0.47633
C         13.55031        12.08010        -0.98044
C         12.29174        12.66296        -1.53079
C         13.58773        14.74160        -2.24368
C         12.30310        14.05908        -1.91472
C         13.62424        16.22929        -2.38927
C         12.37289        16.94379        -2.26980
C         13.31449        19.25572        -2.60586
C         12.32207        18.35673        -2.11534
C         13.54964        20.54951        -2.14024
C         12.43973        21.19101        -1.33499
C         13.57459        23.37308        -1.76767
C         12.37008        22.67895        -1.54598
C         13.55269        24.80125        -1.72718
C         12.35461        25.50933        -1.52582
C         13.51997        27.69099        -1.33684
C         12.32639        26.96862        -1.44239
C         13.55603        29.08430        -0.96939
C         12.33708        29.88982        -1.18126
C         13.46755        31.81656        -0.05355
C         12.26549        31.25101        -0.60122
C         13.43790        33.10354         0.54826
C         12.21525        33.88649         0.52337
C         13.21812        35.58215         2.12596
C         12.20292        35.16883         1.08821
C         13.34697        37.09534         2.25585
C         12.16838        37.86601         2.16557
C         15.87281         4.73066         3.56955
C         14.69818         5.14210         2.87767
C         15.96819         7.09633         1.84876
C         14.81585         6.17631         1.82135
C         16.03240         8.25176         1.09024
C         14.87889         8.70158         0.26899
C         16.07382        10.82052        -0.28412
C         14.81321        10.12379        -0.12451
C         16.11572        12.01012        -1.00726
C         14.87746        12.76169        -1.26726
C         16.20575        14.76840        -2.38179
C         14.88335        13.98709        -2.14585
C         16.10911        16.16475        -1.76953
C         14.88943        16.86995        -2.36781
C         16.18136        19.03663        -2.47085
C         15.07840        18.20543        -2.78654
C         16.09894        20.49893        -2.45534
C         14.81308        21.23755        -2.29780
C         16.04550        23.41573        -2.12662
C         14.80183        22.63346        -2.06850
C         16.04841        24.79475        -1.60352
C         14.81939        25.56317        -2.04462
C         16.03130        27.58435        -0.93769
C         14.80833        26.99947        -1.55912
C         15.88876        28.83618        -0.10042
C         14.70001        29.68962        -0.46910
C         15.89168        31.71377         0.35780
C         14.69700        31.07716        -0.06111
C         15.87275        33.00492         0.93723
C         14.61969        33.64376         1.12067
C         15.84851        35.58948         2.21553
C         14.55237        34.86395         1.94650
C         15.81187        37.03607         2.54715
C         14.55768        37.69948         2.60214
C         18.25964         5.04461         4.12251
C         17.05519         5.46446         3.49366
C         18.36496         7.51589         2.64106
C         17.03379         6.77426         2.81042
C         18.44732         8.54956         1.60536
C         17.25329         9.03447         1.00159
C         18.56520        10.83966        -0.03204
C         17.29971        10.20562         0.20029
C         18.63170        12.06272        -0.75758
C         17.40950        12.60398        -1.37515
C         18.68356        14.79734        -1.71658
C         17.45570        14.01144        -1.94701
C         18.65536        16.21939        -1.85869
C         17.40853        16.92866        -1.98144
C         18.67390        19.00226        -2.41456
C         17.39961        18.30674        -2.22111
C         18.61885        20.55391        -2.39880
C         17.30175        21.19719        -2.26725
C         18.52591        23.28840        -1.47840
C         17.35883        22.66052        -2.14480
C         18.39351        24.54493        -0.87115
C         17.18944        25.34524        -1.02290
C         18.32493        27.35123        -0.04849
C         17.21443        26.74193        -0.62401
C         18.41176        28.78761         0.10658
C         17.20236        29.58559        -0.17533
C         18.43189        31.65156         0.66085
C         17.19576        31.05370         0.12914
C         18.40896        33.00945         1.06751
C         17.12739        33.69880         1.23397
C         18.31922        35.81759         1.79880
C         17.09839        35.00271         1.70235
C         18.27674        37.10386         2.52366
C         17.00584        37.71230         2.76204
C         19.47096         5.69504         3.92029
C         20.82351         7.37645         2.68324
C         19.58338         6.84491         3.10588
C         20.88710         8.47302         1.84030
C         19.71669         9.08024         1.28346
C         21.01000        10.86263         0.11064
C         19.77687        10.24697         0.44251
C         21.05083        12.07110        -0.54923
C         19.85716        12.72909        -0.95402
C         21.09269        14.85950        -1.36287
C         19.87968        14.11834        -1.40117
C         21.10330        16.21356        -1.59885
C         19.90057        16.93147        -1.83455
C         21.09825        19.12398        -2.04227
C         19.92917        18.34140        -2.07143
C         21.05162        20.51512        -1.97448
C         19.83962        21.24090        -1.95034
C         20.88898        23.16797        -0.77165
C         19.75405        22.55647        -1.41197
C         20.77839        24.34444        -0.10275
C         19.50006        25.05345        -0.04144
C         20.71039        27.25782         0.72710
C         19.47002        26.54323         0.40595
C         20.76181        28.61380         0.73132
C         19.58973        29.42788         0.47939
C         20.80496        31.52095         1.13291
C         19.61657        30.87390         0.72370
C         20.81146        32.87032         1.45231
C         19.63114        33.63539         1.42971
C         20.80933        35.73689         2.35833
C         19.67362        35.09254         1.68812
C         20.70854        37.01201         2.84222
C         19.46600        37.70960         2.90286
O         17.62557        12.85204        -2.82624
O         10.65832        36.18082        -0.52262
O         17.32996        30.53926        -1.26010
O          5.58142        11.07224         1.14060
O         15.22725        34.71680         3.24762
O          2.97843        25.62101         1.62718
O         11.81733        29.68780        -2.53730
O         19.11132        25.46081         1.32080
O         14.40775         5.63139         0.52276
O         15.76320        27.80865        -2.35308
O         19.11460        35.86727         0.57419
O         10.43072        18.44529        -0.42113
O          1.29018         6.17757         1.16829
O         14.15213        13.00040         0.00146
O         14.44820         7.82318        -0.82191
O          9.83252        12.94781        -3.26179
O         10.44594         9.65549        -1.97841
O          5.21588        36.05869        -0.55435
O          1.13405        15.29238        -3.74142
O          3.49480        20.28105        -3.39751
O          6.56788        25.33185        -2.50207
O         14.14745        13.92514        -3.38772
O          6.65063         5.80122         0.33682
O          9.57884        30.87442        -2.28562
O         18.75166        19.79901        -3.63543
O          4.07155         8.06709        -0.60344
O          8.10548        18.93637        -3.40694
O         17.40388         7.87086         3.70281
O         14.12361        18.76466        -3.64264
O         16.85154        23.31578        -3.35819
O         15.70396        28.39524         1.27562
H         15.55833        29.18517         1.83735
O         12.66735        35.13413         3.40367
H         13.44211        35.01407         4.00206
O          6.29865        16.02315        -4.16105
H          6.18502        16.93277        -4.53079
O          5.65931        32.04469        -1.84818
H          6.39125        32.54625        -2.26794
O         14.89235        25.60160        -3.49564
H         15.50689        26.33525        -3.72758
O          5.79762        18.51050        -0.50420
H          6.46490        18.88493         0.10882
O         15.89182        15.99262        -0.34713
H         15.81425        16.87546         0.07043
O         16.35662        14.99813        -3.78825
H         16.48102        14.12636        -4.22207
O         12.79086        20.99225         0.09134
H         12.00176        21.22908         0.62360
O          5.29318        18.61850        -4.11300
H          4.86411        19.46283        -4.39589
H          1.33498         4.22275         4.64875
H         -0.63750         5.70985         4.66138
H         -0.69784         7.77983         3.34138
H         -0.97293         9.04187         1.72323
H         -0.99069        11.06532         0.33292
H         -0.98535        12.07374        -1.38905
H         -0.90735        13.90582        -3.08547
H         -0.96604        16.80115        -3.37814
H         -0.99165        19.04582        -2.30001
H         -0.92399        20.62077        -1.13318
H         -0.85048        22.84566        -0.15203
H         -0.75938        24.61731         0.66903
H         -0.73132        26.95884         1.23690
H         -0.75860        28.85358         1.49955
H         -0.79033        31.25909         1.81053
H         -0.75772        33.07616         2.25977
H         -0.76089        35.48226         2.72135
H          0.40354        37.66182         2.77522
H          3.75303         3.93296         4.13291
H          2.45804        39.01309         2.43042
H          6.10465         3.76008         3.80178
H          4.85726        39.11273         1.99734
H          8.58365         3.72179         3.74394
H          7.35073        39.10633         1.93617
H         11.00664         3.65547         3.64569
H          9.73070        39.02218         2.09844
H         13.39728         3.71244         3.81630
H         12.18356        38.91338         2.50490
H         15.83337         3.82449         4.19263
H         14.56036        38.78123         2.80953
H         18.24023         4.11903         4.71612
H         16.97868        38.75880         3.10166
H         20.38803         5.26401         4.34827
H         21.75335         6.91232         3.04299
H         21.87685         8.86408         1.57063
H         21.95626        10.39402         0.41073
H         22.02998        12.52234        -0.75321
H         22.04427        14.35638        -1.15140
H         22.06269        16.74654        -1.58700
H         22.08040        18.64099        -1.95282
H         22.00184        21.04713        -1.83119
H         21.85427        22.64509        -0.76952
H         21.63875        24.74295         0.45109
H         21.60145        26.67970         1.00724
H         21.71267        29.09884         0.98789
H         21.75436        30.97249         1.17467
H         21.76523        33.34547         1.71840
H         21.75256        35.18537         2.47562
H         21.59318        37.49012         3.28682
H         19.43619        38.69753         3.38440
