         244
 CSIRO Nanostructure Databank - Neutral Graphene Oxide Data Set
C          1.28609         2.07763         0.24526
C          1.27126         3.51507         0.35178
C          2.44126         1.35326         0.32558
C          2.41643         4.22318         0.57133
C          1.20235         6.47975         0.66816
C          1.21455         7.81334         0.44429
C          2.47091         5.71099         0.92275
C          2.44522         8.56101         0.27484
C          1.26477        10.76722         0.29013
C          1.32688        12.09824         0.47593
C          2.47839         9.96623         0.19764
C          2.64478        12.77882         0.76659
C          1.44854        14.99027         0.93408
C          1.40934        16.38515         0.85033
C          2.58976        14.27293         0.56566
C          2.54502        17.10149         0.45192
C          2.53782        18.54296         0.41091
C          3.71625         2.01230         0.45574
C          3.69165         3.47598         0.65664
C          4.91568         1.34933         0.29680
C          4.96907         4.22140         0.35318
C          3.66687         6.41697         0.30527
C          3.66129         7.79290         0.11247
C          4.81885         5.60506        -0.23060
C          4.86483         8.49316        -0.30991
C          3.70218        10.66758        -0.05230
C          3.78837        12.09400         0.03688
C          4.87012         9.91662        -0.41812
C          4.92809        12.80715        -0.35896
C          3.75130        14.96363         0.13674
C          3.73850        16.39148         0.11391
C          4.94356        14.24756        -0.24686
C          4.92439        17.11769        -0.20314
C          3.67115        19.24366         0.12886
C          4.91574        18.56681        -0.14134
C          6.17489         2.03709         0.12227
C          6.18063         3.46111        -0.00106
C          7.37592         1.33316        -0.05740
C          7.35322         4.16239        -0.33677
C          6.13703         6.33317        -0.27219
C          6.08148         7.77303        -0.45589
C          7.30859         5.61895        -0.43649
C          7.24443         8.46237        -0.85434
C          6.01215        10.59655        -0.92383
C          6.03176        12.10636        -1.17633
C          7.08733         9.78878        -1.29202
C          7.44064        12.84261        -1.01081
C          6.10916        15.00441        -0.53092
C          6.10949        16.41235        -0.49757
C          7.40954        14.32016        -0.75578
C          7.38296        17.15466        -0.85351
C          6.09825        19.27810        -0.25706
C          7.35869        18.62370        -0.46597
C          8.60327         2.01283        -0.27511
C          8.58778         3.44351        -0.42055
C          9.83889         1.30962        -0.32731
C          9.83767         4.12708        -0.49634
C          8.55990         6.35344        -0.76583
C          8.57600         7.84787        -0.44730
C          9.86123         5.59303        -0.70041
C          9.91017         8.56098        -0.88034
C          8.99610        10.85279        -1.04741
C          8.73867        12.19768        -0.65041
C          9.92698        10.03220        -0.49118
C          9.84036        12.88420        -0.09447
C          8.61605        15.02051        -0.22490
C          8.61316        16.45978        -0.29881
C          9.77492        14.31764         0.08114
C          9.76773        17.18391        -0.13250
C          8.53431        19.31046        -0.39742
C          9.84668        18.61228        -0.64244
C         11.07233         1.98711        -0.38730
C         11.03463         3.42429        -0.40444
C         12.33964         1.31373        -0.39628
C         12.30566         4.15234        -0.21943
C         11.06740         6.34182        -0.39410
C         11.04035         7.79498        -0.21325
C         12.31295         5.64282        -0.11538
C         12.26096         8.49935         0.30326
C         10.97639        10.66442         0.39993
C         11.04391        12.17066         0.20939
C         12.34307        10.00148         0.05824
C         12.27480        12.84859         0.44197
C         10.99088        15.00170         0.53678
C         10.98076        16.55411         0.39128
C         12.28644        14.28617         0.49463
C         12.26570        17.21782         0.22201
C         11.01918        19.38594        -0.01764
C         12.31519        18.60486        -0.08792
C         13.57390         1.98806        -0.52812
C         13.55513         3.46641        -0.64898
C         14.82523         1.35144        -0.55056
C         14.84475         4.25457        -0.57218
C         13.57080         6.46253        -0.38925
C         13.55675         7.70816         0.52343
C         14.83819         5.67357        -0.21557
C         14.83020         8.51850         0.37437
C         13.50373        10.64985         0.83095
C         13.51895        12.14805         0.58859
C         14.82703         9.95214         0.56721
C         14.73812        12.84780         0.59622
C         13.49707        14.98722         0.56938
C         13.49219        16.47054         0.53659
C         14.74324        14.28230         0.53713
C         14.79419        17.16840         0.23830
C         13.50956        19.23936        -0.36344
C         14.75539        18.43824        -0.58816
C         16.06529         2.07198        -0.50111
C         16.08620         3.49831        -0.42708
C         17.30290         1.38883        -0.43953
C         17.28921         4.22342        -0.24401
C         16.03450         6.35578         0.02233
C         16.00676         7.80562         0.25405
C         17.26721         5.64060        -0.08329
C         17.27459         8.49862         0.55889
C         16.01152        10.67801         0.62819
C         16.00542        12.13394         0.66855
C         17.29733         9.98224         0.61448
C         17.21154        12.83320         0.68331
C         15.99543        14.97106         0.39910
C         16.03178        16.36863         0.14573
C         17.23221        14.25036         0.45651
C         17.23569        17.04986        -0.07724
C         16.03659        19.19630        -0.43681
C         17.23196        18.49906        -0.28495
C         18.52422         2.08613        -0.31306
C         18.53519         3.50728        -0.22280
C         19.77456         1.37880        -0.24261
C         19.77672         4.21051        -0.07253
C         18.54462         6.40930        -0.27450
C         18.55257         7.73968         0.44115
C         19.80738         5.62851        -0.01003
C         19.82882         8.47640         0.42127
C         18.48701        10.64885         0.72267
C         18.49923        12.13199         1.05399
C         19.80169         9.90941         0.92786
C         19.75197        12.84896         0.59454
C         18.46133        14.93322         0.24625
C         18.47135        16.33347        -0.02161
C         19.72318        14.20525         0.27437
C         19.70167        17.03781        -0.19702
C         18.47747        19.17298        -0.35968
C         19.69636        18.46656        -0.35239
C         20.95850         2.04563        -0.07568
C         20.99464         3.47569         0.01631
C         22.20786         4.18604         0.17806
C         21.01838         6.32196         0.16516
C         21.01342         7.78960         0.31405
C         22.21863         5.56760         0.26100
C         22.25993         8.53936         0.48267
C         20.98940        10.67009         0.31411
C         21.06876        12.12925         0.80207
C         22.26495         9.88437         0.53883
C         22.22267        12.84393         0.15878
C         20.94209        14.91007        -0.03941
C         20.94358        16.33002        -0.21874
C         22.15641        14.15341        -0.17704
C         22.14575        17.06497        -0.38998
C         20.92922        19.15515        -0.50774
C         22.12965        18.45392        -0.52654
O          8.13542        10.34080        -2.03641
O         10.81848        15.87706         1.68905
O         14.27379        17.19174         1.58983
O         17.91587         7.83030         1.75569
O          4.57210         3.99990         1.73893
O         14.11095         3.99806        -1.89277
O          9.18040         5.97030        -2.01291
O         11.23047         8.11162         1.24109
O         12.38611         4.80720         1.10580
O          7.62335        13.80105        -2.12685
O         13.50606         6.89820        -1.76792
H         13.65312         6.10409        -2.33165
O         20.76749        10.75384        -1.11347
H         20.74642         9.84111        -1.47220
O          2.66051         5.76136         2.37908
H          3.45438         5.20277         2.57259
O         13.57375         7.25658         1.88874
H         12.63548         7.18114         2.18411
O         19.97664         9.80509         2.37033
H         19.30371         9.15280         2.67889
O         14.69944        17.94662        -1.98738
H         14.69413        18.73028        -2.57675
O         12.61824        10.21874        -1.33799
H         11.98350         9.69387        -1.87674
O         10.71849        19.67036         1.35694
H         10.80909        18.84198         1.87314
O         10.12528         8.46886        -2.29677
H          9.39658         8.96337        -2.73922
O         10.60034        10.47329         1.78137
H         11.42238        10.47790         2.32716
O         18.58124         6.77897        -1.70313
H         18.58097         5.94776        -2.22414
O         21.34015        12.08638         2.23749
H         21.34918        13.01039         2.56502
O          7.53480        17.11920        -2.31295
H          6.71008        17.47559        -2.70579
O          5.64371        12.27654        -2.55776
H          6.16883        13.03896        -2.90694
O         18.55619        12.18595         2.52867
H         19.30701        11.59262         2.79296
O          2.90017        12.58588         2.20109
H          2.92308        11.61872         2.36438
O         10.07300        18.54783        -2.07660
H          9.31154        18.04811        -2.46125
O         13.23537        10.45300         2.25463
H         14.00137        10.79683         2.76130
O          8.57770         7.96141         0.99672
H          7.74919         7.57368         1.34821
O          4.46474         5.34486        -1.64100
H          4.47812         6.20481        -2.11333
H          0.32608         1.56078         0.10678
H          0.29781         4.02133         0.28864
H          2.41953         0.25707         0.24065
H          0.23910         5.96801         0.80725
H          0.25575         8.34539         0.36369
H          0.28766        10.27912         0.16789
H          0.39559        12.67995         0.52250
H          0.56385        14.46320         1.31577
H          0.49551        16.92674         1.13348
H          1.59892        19.06836         0.63889
H          4.90849         0.25502         0.17734
H          3.66457        20.34336         0.13066
H          7.37771         0.23595         0.02518
H          6.09159        20.37021        -0.12117
H          9.82642         0.21069        -0.27403
H          8.53530        20.38859        -0.17595
H         12.34634         0.21635        -0.31534
H         11.13258        20.36632        -0.54149
H         14.86605         0.25198        -0.53111
H         13.52270        20.32129        -0.56635
H         17.31515         0.28973        -0.48404
H         16.05199        20.28634        -0.58880
H         19.76194         0.28135        -0.31322
H         18.48907        20.26529        -0.48987
H         21.90485         1.48878        -0.01223
H         23.15231         3.62669         0.24423
H         23.18036         6.07853         0.40077
H         23.20576         7.99084         0.58957
H         23.21712        10.41751         0.67130
H         23.17247        12.30477         0.03628
H         23.05129        14.64304        -0.58545
H         23.11451        16.54889        -0.39878
H         20.92249        20.24890        -0.61788
H         23.07807        18.99575        -0.64818
