         324
 CSIRO Nanostructure Databank - Neutral Graphene Oxide Data Set
C          1.53656         2.02123         1.50391
C          1.53037         3.42151         1.44992
C          2.67595         1.29584         1.18724
C          2.69270         4.13436         1.08487
C          1.55164         6.38403         1.29076
C          1.57037         7.77542         1.33002
C          2.73378         5.60988         1.10617
C          2.77167         8.50576         1.27793
C          1.72221        10.67615         1.79739
C          1.71275        12.06932         1.77970
C          2.83053         9.95165         1.32162
C          2.79587        12.79205         1.27710
C          1.88118        15.01696         2.17408
C          2.11823        16.27768         2.56373
C          2.68634        14.28846         1.11141
C          3.37785        17.00779         2.16480
C          3.28182        18.51232         2.08851
C          3.86067         1.96372         0.76548
C          3.84352         3.39812         0.73170
C          5.05258         1.24080         0.50283
C          5.11366         4.08930         0.44743
C          3.94676         6.29385         0.96349
C          4.00044         7.74465         1.13263
C          5.19703         5.59579         0.61723
C          5.25030         8.53184         0.58031
C          3.97446        10.67245         0.82991
C          3.94015        12.10644         0.77481
C          5.11743         9.98114         0.31553
C          5.05170        12.82605         0.21330
C          4.00944        14.94263         0.82523
C          3.95960        16.41209         0.90476
C          5.04486        14.27725         0.17936
C          4.91374        17.19549         0.08607
C          4.08244        19.25396         1.30965
C          4.97805        18.72691         0.20456
C          6.13941         1.83931        -0.25771
C          6.08646         3.37056        -0.42147
C          7.44033         1.21715        -0.47423
C          7.32302         4.09697        -0.87075
C          6.23777         6.36082        -0.11518
C          6.23891         7.72308        -0.13938
C          7.32962         5.60433        -0.79923
C          7.25702         8.45519        -1.01944
C          6.19398        10.67893        -0.26208
C          6.18617        12.12475        -0.28300
C          7.36770         9.95576        -0.72648
C          7.33413        12.85330        -0.69451
C          6.15512        15.02741        -0.40372
C          6.05363        16.44947        -0.50835
C          7.36637        14.28049        -0.69532
C          7.06823        17.28957        -1.01688
C          6.38411        19.25873         0.23367
C          7.35649        18.61723        -0.51933
C          8.61223         1.93991        -0.78684
C          8.60686         3.38010        -0.93289
C          9.84939         1.25983        -0.93310
C          9.80370         4.10117        -1.07543
C          8.63364         6.27078        -0.89316
C          8.60185         7.74112        -0.81914
C          9.80542         5.56201        -1.09387
C          9.83661         8.47602        -1.19107
C          8.49044        10.63505        -1.12230
C          8.49142        12.13091        -1.35453
C          9.69902         9.91056        -1.59732
C          9.85849        12.74187        -1.07443
C          8.65496        14.90139        -0.77110
C          8.89091        16.24261        -1.13659
C          9.87841        14.10955        -0.50675
C          9.98558        17.02924        -0.77964
C          8.67027        19.17947        -0.73593
C          9.88482        18.47493        -0.83908
C         11.06240         1.96143        -1.09426
C         11.05244         3.39768        -1.10695
C         12.30251         1.28506        -1.24858
C         12.28848         4.09963        -1.12730
C         11.06995         6.26089        -1.28590
C         11.07744         7.71023        -1.45713
C         12.26162         5.53561        -1.30721
C         12.23178         8.41830        -1.68591
C         10.97173        10.67029        -1.83786
C         11.01615        12.09963        -1.41911
C         12.25304         9.88186        -1.92166
C         12.31300        12.77141        -1.31083
C         11.17397        14.82812        -0.23648
C         11.14539        16.40113        -0.00705
C         12.37731        14.11399        -0.75262
C         12.42940        17.23463        -0.21245
C         11.10599        19.22620        -0.85780
C         12.35665        18.64408        -0.62031
C         13.53973         1.95003        -1.18133
C         13.52367         3.39128        -1.00858
C         14.74355         1.18223        -1.46103
C         14.73631         4.16718        -0.83671
C         13.53977         6.23560        -1.52787
C         13.53347         7.72734        -1.72096
C         14.77302         5.56936        -1.06682
C         14.70821         8.50116        -1.19712
C         13.55235        10.63013        -1.82651
C         13.49875        12.07555        -1.53189
C         14.80766         9.94016        -1.45462
C         14.78872        12.76016        -1.64992
C         13.62068        14.68203        -0.59119
C         13.64146        16.82340         0.25863
C         14.78589        14.25043        -1.34827
C         14.85457        17.66382         0.34417
C         13.55801        19.38809        -0.82770
C         14.84422        18.85667        -0.54230
C         15.99597         1.50955        -0.92484
C         15.94219         3.58352        -0.40979
C         17.32180         1.22889        -1.30488
C         17.20558         4.19614        -0.57255
C         15.96258         6.28534        -0.87436
C         15.94378         7.75900        -0.77997
C         17.19609         5.61610        -0.67978
C         17.21479         8.50008        -0.70137
C         16.00054        10.62434        -1.19906
C         16.06195        12.05625        -1.37035
C         17.20744         9.91881        -0.80874
C         17.22899        12.76394        -1.05703
C         16.08272        14.95480        -1.24479
C         16.11784        16.32705        -1.53274
C         17.27096        14.21497        -1.08733
C         17.30354        17.08546        -1.32428
C         16.05449        19.32091        -1.07191
C         17.29594        18.55009        -1.16527
C         18.46512         2.01231        -0.88799
C         18.42719         3.44232        -0.59970
C         19.72690         1.39034        -0.93344
C         19.64443         4.18624        -0.52863
C         18.41877         6.34457        -0.53906
C         18.41016         7.78775        -0.49994
C         19.62094         5.61995        -0.47138
C         19.62893         8.50738        -0.21782
C         18.41312        10.64642        -0.58031
C         18.43832        12.06629        -0.69809
C         19.60876         9.96094        -0.19075
C         19.64768        12.77834        -0.47867
C         18.49750        14.91657        -1.05549
C         18.49708        16.33175        -1.19178
C         19.71972        14.19130        -0.75451
C         19.78568        17.01694        -1.39052
C         18.50419        19.20709        -1.04303
C         19.78599        18.52923        -1.28147
C         20.93027         2.06369        -0.58541
C         20.89614         3.49016        -0.41353
C         22.14841         1.36274        -0.42241
C         22.07728         4.16485        -0.00607
C         20.86754         6.39342        -0.38260
C         20.82448         7.82573        -0.08619
C         22.14382         5.64853        -0.02931
C         22.14096         8.57721         0.05450
C         20.76898        10.67335         0.14269
C         20.81556        12.08041        -0.02553
C         21.91864         9.91055         0.77354
C         22.03195        12.78692         0.23808
C         20.94138        14.85645        -0.65966
C         21.08903        16.22333        -1.31160
C         22.08850        14.18135        -0.12769
C         22.28465        17.03484        -0.84636
C         21.05876        19.17365        -0.93235
C         22.25873        18.49042        -0.80141
C         23.30663         2.01536         0.06372
C         23.22062         3.42604         0.31392
C         24.52902         1.33678         0.32953
C         24.30563         4.07835         1.04412
C         23.17761         6.39042         0.71265
C         23.20404         7.78197         0.79239
C         24.23155         5.56799         1.32294
C         24.25376         8.49700         1.48882
C         23.21482        10.69277         0.95639
C         23.17654        12.09759         0.77780
C         24.34300         9.95085         1.45392
C         24.33210        12.92624         1.19548
C         23.28450        14.91964         0.00430
C         23.39765        16.26688        -0.45493
C         24.38409        14.38172         0.81943
C         24.72768        16.81712        -0.51932
C         23.41336        19.30643        -0.38531
C         24.70896        18.96201        -0.65633
C         25.68336         2.00194         0.83513
C         25.59650         3.39362         1.16418
C         26.94425         1.34329         0.95384
C         26.71355         4.09378         1.65491
C         25.44672         6.29155         1.70577
C         25.29353         7.62758         2.00024
C         26.76616         5.59798         1.54051
C         27.20820         8.64945         1.79875
C         25.60639        10.71750         1.71919
C         25.63728        12.21885         1.52125
C         27.03475        10.09103         1.65710
C         26.92346        12.92821         1.31821
C         25.67368        15.15840         0.98540
C         25.81873        16.41295         0.20171
C         26.94370        14.41884         1.33025
C         27.07561        17.16295         0.15086
C         25.97365        19.45629        -0.16983
C         27.08548        18.63743        -0.00879
C         28.05857         2.01287         1.48081
C         27.85678         3.34080         1.93309
C         29.41599         1.46070         1.45309
C         29.69051         4.47020         1.58562
C         28.05360         6.36075         1.21886
C         28.09271         7.85564         1.15977
C         29.42657         5.75341         1.09697
C         29.06269         8.49020         0.23219
C         28.08233        10.81011         0.95688
C         28.08553        12.21921         0.92806
C         29.07106        10.04289         0.18301
C         29.32772        12.86837         0.52569
C         28.24621        15.13102         1.04767
C         28.25036        16.50297         0.45989
C         29.48687        14.29258         0.87879
C         29.55752        17.16654         0.06618
C         28.33727        19.30797         0.29064
C         29.52919        18.64331         0.38517
C         30.57169         2.16727         1.27586
C         30.67399         3.60979         1.06340
C         31.63654         4.22043         0.22956
C         30.42708         6.36686         0.29273
C         30.30585         7.77677        -0.09447
C         31.54833         5.57866        -0.07343
C         31.32940         8.50708        -0.67633
C         30.31301        10.71498        -0.22109
C         30.40849        12.15289         0.00447
C         31.33292         9.92914        -0.73884
C         31.60629        12.86928        -0.39802
C         30.79436        14.97775         0.57315
C         30.80850        16.46844         0.54011
C         31.78267        14.19754        -0.18629
C         31.91988        17.17548         0.86836
C         30.76575        19.32089         0.68615
C         31.91469        18.61913         0.89938
O         15.80935        17.36759         1.06128
O         14.95439         8.20777         0.23722
O         28.45158         9.21471        -0.87670
O          6.96902         4.90945        -2.04510
O          7.91588        16.81511        -2.00016
O         19.78703        17.83948        -2.60797
O         24.88730        17.82603        -1.47678
O         13.88031        15.47789         0.53580
O         27.69857        15.06187         2.41212
O         10.46369        14.14499         0.86255
O         23.79912         4.59845         2.35733
O          3.53808        16.89795        -0.43082
O         26.43839        10.56632         2.90745
O         27.19798         5.85879         0.11513
O         28.88516         3.98304         2.62971
O          5.74669         4.68379         1.64007
O         24.75642        12.76462         2.57543
O         10.08658        10.29489        -2.95792
O         14.63461        13.77797        -2.72207
O         30.50740        14.47875         1.92521
O         24.64942        15.22928         2.01289
O          5.12017         8.20267         1.98044
O         26.35361         8.13118         2.76783
O         21.90766         6.11746        -1.41556
O         13.00750        10.23670        -3.14371
O          5.53781         2.56147        -1.44596
O          6.79609         8.30636        -2.31579
O         15.90479         2.34790         0.21822
O          9.43244         8.32950         0.23237
O         13.74252         6.85634        -2.86915
O         29.61704        17.05772        -1.40560
H         28.90751        17.63034        -1.76985
O         21.43920        15.88685        -2.69947
H         21.14440        16.65284        -3.24779
O          8.25974        12.31237        -2.79043
H          8.81565        11.63852        -3.25823
O         15.02066        16.89824        -2.10175
H         14.40806        16.19663        -2.40634
O         21.47358         9.54855         2.11398
H         21.41994        10.36670         2.65106
O         22.62608         8.83167        -1.28469
H         22.62141         7.96373        -1.75551
O          4.40688        19.25561        -1.03146
H          3.63172        18.68546        -1.24234
O          4.38007        16.70621         3.18821
H          4.05137        17.04950         4.04529
O         10.83766        16.59890         1.39393
H         10.47575        15.74260         1.73128
O          1.92764        14.48028        -0.13679
H          2.16215        15.36686        -0.49625
H          0.62349         1.49334         1.81279
H          0.61366         3.95661         1.73045
H          2.66735         0.19815         1.23983
H          0.58024         5.87832         1.36765
H          0.61288         8.30695         1.41899
H          0.84970        10.14371         2.19834
H          0.82072        12.59422         2.14625
H          0.96593        14.52194         2.53298
H          1.44169        16.76825         3.28268
H          2.61061        19.00985         2.80786
H          5.11472         0.18028         0.78692
H          4.00710        20.35184         1.36180
H          7.54306         0.15173        -0.21829
H          6.57541        20.25194         0.66406
H          9.86402         0.16093        -0.88877
H          8.75463        20.26796        -0.58908
H         12.29261         0.19040        -1.35846
H         11.05199        20.30767        -1.05574
H         14.64653         0.32315        -2.14224
H         13.47930        20.35790        -1.34412
H         17.52074         0.36823        -1.96181
H         16.06986        20.32332        -1.53308
H         19.77802         0.31522        -1.16250
H         18.52452        20.27173        -0.76592
H         22.17572         0.27951        -0.61182
H         21.04571        20.25901        -0.75022
H         24.58996         0.25804         0.12184
H         23.19875        20.23308         0.16703
H         27.04855         0.31490         0.57775
H         26.08912        20.53266         0.03481
H         29.49170         0.36130         1.44951
H         28.31248        20.40050         0.42613
H         31.49983         1.58858         1.14000
H         32.45662         3.62124        -0.19103
H         32.33498         6.02388        -0.69779
H         32.24845         7.99565        -0.99624
H         32.24990        10.40181        -1.11692
H         32.38036        12.31944        -0.95073
H         32.65683        14.71665        -0.60535
H         32.84083        16.64796         1.15635
H         30.75267        20.41714         0.77715
H         32.84750        19.14342         1.14852
