         349
 CSIRO Nanostructure Databank - Neutral Graphene Oxide Data Set
C          1.32577         3.39871         0.29687
C          0.07579         4.02815         0.47110
C          1.12203         6.26849         0.43979
C         -0.03110         5.39177         0.63658
C          0.94658         7.74015         0.78733
C          0.11528         8.37819        -0.30820
C          1.04251        10.59169         0.21721
C          0.11181         9.69959        -0.51567
C          1.10460        12.01759        -0.24683
C         -0.13843        12.80564        -0.21622
C          1.12611        14.91758        -0.25263
C         -0.11084        14.15952        -0.26025
C          1.11594        16.35861        -0.27857
C         -0.08579        17.11412        -0.28449
C          1.14997        19.22275        -0.31985
C         -0.07076        18.49355        -0.30630
C          1.14327        20.68522        -0.43197
C         -0.04741        21.44714        -0.12591
C          1.00412        23.56328        -0.80860
C         -0.07250        22.80765        -0.16057
C          1.11941        25.03297        -0.59637
C         -0.09079        25.81397        -0.39585
C          1.25474        27.70453         0.46679
C         -0.05094        27.09397         0.03229
C          1.26538        29.21149         0.42683
C          3.77312         3.49480         0.45367
C          2.53078         4.12612         0.37815
C          3.71363         6.34328         0.75190
C          2.49244         5.60376         0.37383
C          3.61953         7.78092         1.09767
C          2.28107         8.47728         1.05135
C          3.50453        10.78011         1.04325
C          2.22545         9.98463         0.90716
C          3.59636        12.11723         0.46213
C          2.39954        12.77009        -0.11555
C          3.58984        14.95136        -0.06839
C          2.34863        14.24469        -0.11331
C          3.58683        16.34579        -0.28377
C          2.35871        17.06490        -0.32161
C          3.63572        19.22148        -0.25691
C          2.35533        18.49745        -0.33727
C          3.61687        20.72230        -0.54035
C          2.31402        21.36649        -0.74985
C          3.57013        23.54059        -1.41158
C          2.27478        22.77847        -1.14196
C          3.59802        24.95846        -0.85293
C          2.35124        25.66511        -0.59704
C          3.56647        27.79720        -0.49515
C          2.42939        27.08968        -0.26781
C          3.62833        29.30367        -0.39774
C          2.35320        29.92207         0.11214
C          6.16632         3.56427         0.83011
C          4.97876         4.23440         0.65981
C          6.16305         6.42420         1.03715
C          4.92669         5.69171         0.81470
C          6.11342         7.87724         1.09378
C          4.88653         8.55311         1.11273
C          6.10450        10.75543         0.98492
C          4.85786        10.01584         1.27444
C          6.06412        12.08193         0.63244
C          4.81829        12.81511         0.41494
C          6.04912        14.98015         0.16769
C          4.82540        14.22422         0.13299
C          6.08768        16.31845        -0.15690
C          4.87014        17.02232        -0.68510
C          6.08713        19.21571        -0.56840
C          4.91060        18.51580        -0.46324
C          6.10046        20.66434        -0.77258
C          4.86344        21.36947        -0.96385
C          6.05221        23.48546        -1.20469
C          4.85598        22.78282        -1.14368
C          6.10246        24.89793        -0.69502
C          4.78926        25.63097        -0.84717
C          6.08441        27.73425        -0.44172
C          4.82342        27.12789        -1.00190
C          6.04409        28.99510         0.22789
C          4.85432        29.71776         0.37561
C          8.60258         3.72125         0.45720
C          7.42829         4.23851         1.26056
C          8.62840         6.45110         1.24504
C          7.37702         5.75110         1.19719
C          8.65888         7.84836         1.19955
C          7.37913         8.57707         1.55243
C          8.64267        10.73230         0.79169
C          7.42116        10.13362         1.46330
C          8.62893        12.08393         0.54567
C          7.33726        12.78225         0.36240
C          8.61057        14.95537         0.73284
C          7.34787        14.26212         0.22663
C          8.58041        16.51522         0.50409
C          7.38314        17.00859        -0.31091
C          8.64022        19.24736        -0.33174
C          7.38655        18.48889        -0.57917
C          8.56789        20.71863        -0.45898
C          7.31345        21.34789        -0.90766
C          8.58420        23.51801        -1.56567
C          7.27784        22.70768        -1.59313
C          8.53236        25.03450        -1.52525
C          7.31672        25.71099        -1.07051
C          8.57238        27.76988        -0.40882
C          7.32127        27.07964        -0.69026
C          8.51388        28.91630         0.49356
C          7.26550        29.47630         0.79182
C         10.94894         3.69082        -0.15437
C          9.81279         4.33124         0.50670
C         11.13334         6.44871         1.06568
C          9.90193         5.62754         1.36055
C         11.10060         7.85356         0.80662
C          9.88034         8.56931         0.93919
C         11.07100        10.63439         0.32442
C          9.88325         9.98479         0.70663
C         11.05189        12.05447        -0.20396
C          9.82936        12.84205         0.20999
C         11.04819        14.95671        -0.25681
C          9.82469        14.21012         0.21196
C         11.05351        16.45017        -0.00125
C          9.88021        17.14333         0.01600
C         11.11944        19.30887        -0.31413
C          9.84464        18.60306        -0.13098
C         11.14120        20.73626        -0.57409
C          9.86254        21.48247        -0.54966
C         11.08834        23.66624        -0.86526
C          9.86322        22.85430        -1.15870
C         11.20347        25.05407        -1.50802
C          9.85187        25.80526        -1.41185
C         11.03877        27.76408        -0.52770
C          9.79948        27.13969        -0.75303
C         10.96180        29.30518         0.87572
C          9.63043        29.39501         1.27426
C         13.49023         3.40333        -0.24035
C         12.23252         3.78827         0.32679
C         13.58006         6.37143         0.60976
C         12.35631         5.81529         1.09449
C         13.57243         7.81236         0.43337
C         12.33510         8.52751         0.54195
C         13.55280        10.63530         0.14347
C         12.31392         9.93623         0.31244
C         13.55578        12.09224         0.08502
C         12.35476        12.77988         0.05444
C         13.60322        15.00946         0.07704
C         12.31281        14.24617         0.19106
C         13.62030        16.46842        -0.14128
C         12.35351        17.20683         0.23519
C         13.58300        19.23479        -0.81445
C         12.30747        18.61373        -0.29879
C         13.59769        20.74347        -0.74177
C         12.34581        21.43096        -0.68906
C         13.64387        23.60438        -0.93164
C         12.36351        22.91004        -0.68171
C         13.61134        25.05537        -0.81558
C         12.41837        25.73722        -0.90177
C         13.52438        27.90818        -0.03094
C         12.26982        27.00578        -0.11814
C         13.41354        28.87093         1.16408
C         12.15285        29.36327         1.62294
C         15.89562         3.55664        -0.52262
C         14.65883         4.15141        -0.04470
C         15.97170         6.25588        -0.01439
C         14.69096         5.56374         0.30708
C         16.01150         7.74719        -0.06488
C         14.76861         8.51394         0.17112
C         16.05565        10.66540         0.11152
C         14.76627         9.92861         0.12431
C         16.03952        12.12122        -0.18964
C         14.82415        12.78550        -0.07081
C         16.08836        14.98451        -0.53694
C         14.78834        14.22673        -0.34202
C         16.08592        16.44285        -0.34694
C         14.81847        17.13426        -0.26573
C         16.09854        19.28871        -0.61517
C         14.81725        18.64283        -0.13260
C         16.07977        20.70875        -0.87885
C         14.81393        21.42948        -0.83783
C         16.10456        23.59347        -1.05053
C         14.81611        22.87567        -0.95804
C         16.12408        25.08631        -0.69294
C         14.83128        25.76969        -0.42402
C         16.05638        27.77774         0.36330
C         14.80338        27.06522         0.01107
C         15.90016        28.88188         1.38982
C         14.55518        29.24215         1.84392
C         18.31315         3.51248        -0.91033
C         17.13175         4.14341        -0.39973
C         18.58866         6.23251         0.25213
C         17.21623         5.46182         0.35604
C         18.50512         7.72201        -0.08326
C         17.32869         8.41769        -0.01196
C         18.55581        10.57508        -0.49223
C         17.33292         9.89769         0.02877
C         18.53758        12.08399        -0.60792
C         17.27909        12.83360        -0.37635
C         18.58028        14.96044        -0.41950
C         17.33644        14.22738        -0.42643
C         18.56584        16.39268        -0.39304
C         17.29946        17.12664        -0.34900
C         18.56261        19.21502        -0.85877
C         17.27985        18.57026        -0.51810
C         18.55764        20.67520        -1.21071
C         17.29078        21.41080        -1.04715
C         18.54966        23.49238        -0.56118
C         17.35022        22.83197        -0.91009
C         18.51985        24.86111        -0.07077
C         17.35689        25.62553        -0.12033
C         18.42548        27.40813         1.28390
C         17.42899        27.10878         0.18078
C         18.25651        28.52825         2.16047
C         17.04212        29.23705         2.21761
C         19.50828         4.17990        -0.98945
C         20.81785         6.24334        -0.80966
C         19.65124         5.53958        -0.57709
C         20.91251         7.63677        -0.55235
C         19.79024         8.40558        -0.26080
C         20.99739        10.60919        -0.43854
C         19.83722         9.85869        -0.35481
C         20.98739        12.03157        -0.49146
C         19.82769        12.79010        -0.51092
C         21.01697        14.98246        -0.42241
C         19.81872        14.24644        -0.43825
C         21.00287        16.37473        -0.39311
C         19.80097        17.09416        -0.38935
C         21.05195        19.33295        -0.65308
C         19.79655        18.60673        -0.22866
C         21.06974        20.61564        -1.03940
C         19.85398        21.46938        -1.33281
C         20.93647        23.38213        -0.07710
C         19.79813        22.78247        -0.57698
C         20.88149        24.65946         0.53345
C         19.71222        25.39896         0.56272
C         20.62396        27.01214         2.24990
C         19.60369        26.63900         1.34399
C         20.48348        28.13388         3.07516
C         19.31627        28.87893         3.05011
O          9.14594        21.44633         0.72237
O          8.39528        17.14050         1.75593
O         18.39600        11.20745        -1.80079
O          9.50684        22.96799        -2.57297
O          1.27350        23.08385        -2.17621
O         16.19093        24.62365        -2.08651
O          9.13725        25.73613        -2.67985
O         11.60280        23.54739         0.47879
O          7.42984        13.44694        -0.98269
O         16.08296        29.16414        -0.12058
O          7.58979        17.49407        -1.68258
O         15.24509        14.57440        -1.68295
O         18.58679        19.62748        -2.25790
O          4.09369        10.60567         2.36310
O          1.07229        10.49742         1.68267
O         16.87670        10.40179         1.33925
O         12.38371         4.48800         1.55582
O          3.71080        20.18320         0.84536
O          2.81213         8.04308         2.33364
O         13.02363        14.69021         1.40133
O          1.95215        12.19246        -1.42464
O         11.10391        29.12054        -0.55309
O          6.98139         8.21265         2.88191
O          1.82072         6.12242        -0.84017
O         15.95462         6.90347        -1.31637
O          0.18000         7.81538         2.00536
H          0.28367         8.73205         2.35406
O          1.42163        27.32612         1.87666
H          2.25335        27.73691         2.19426
O         11.95185        26.53891         1.24230
H         11.89821        25.55191         1.23980
O          4.88733        27.36023        -2.46530
H          4.25645        26.74071        -2.89305
O         10.96557        11.95152        -1.68054
H         11.72129        11.40564        -1.98773
O         12.42983        17.34503         1.69535
H         12.46119        16.42862         2.06231
O          4.94625        16.84844        -2.14931
H          5.88453        17.04436        -2.40251
O         13.60232        28.66407        -1.25168
H         14.45110        29.16747        -1.21693
O          9.99250         5.18047         2.74902
H         10.83962         4.68056         2.82098
O          3.81998        29.82448        -1.75339
H          4.38473        29.17401        -2.24042
O          7.63562         3.83080         2.64596
H          8.44323         4.31240         2.96768
O         19.62441        18.85844         1.20485
H         20.37477        18.43917         1.67603
O         13.68725        18.86867        -2.22353
H         12.89668        19.20673        -2.69367
O          6.26109        24.73094         0.78002
H          5.53454        24.15235         1.09904
O         19.96819        21.84746        -2.73200
H         19.67346        21.06899        -3.25628
O         18.01000        27.69223        -1.02762
H         17.67319        28.61755        -1.07772
O          7.52360        10.61014         2.82769
H          7.19931         9.85098         3.38896
O          7.05717        22.36768        -3.00479
H          7.94150        22.18902        -3.40001
O         11.51338        24.85144        -2.89732
H         10.65744        24.82322        -3.38875
O          3.62165        23.77220        -2.85263
H          2.69339        23.70336        -3.18305
O         14.70636        18.97557         1.27525
H         15.36652        18.45250         1.77460
O          8.61872        14.74012         2.15712
H          8.56104        15.66372         2.54941
O         17.00153         5.13577         1.75226
H         17.80350         4.66809         2.07225
O         11.06510        14.83652        -1.71933
H         10.88415        13.89095        -1.94919
O         19.16834         6.24261         1.59470
H         18.60576         6.81504         2.15937
H          1.37252         2.30241         0.22555
H         -0.82246         3.40048         0.56009
H         -0.97622         5.84198         0.97071
H         -0.55934         7.72608        -0.88232
H         -0.52649        10.15164        -1.28891
H         -1.09383        12.27118        -0.11230
H         -1.06513        14.70270        -0.24699
H         -1.05761        16.60376        -0.26725
H         -1.02784        19.03181        -0.32427
H         -0.90360        20.91816         0.31562
H         -0.91339        23.35503         0.28844
H         -1.05437        25.34373        -0.64224
H         -0.97707        27.67447         0.15520
H          0.35097        29.72507         0.76415
H          3.82824         2.39625         0.41678
H          2.32115        31.02238         0.13893
H          6.17827         2.46494         0.76764
H          4.87757        30.69725         0.87688
H          8.50161         2.74737        -0.04788
H          7.22645        30.35182         1.45690
H         10.74948         3.10577        -1.06453
H          9.39962        29.83126         2.25670
H         13.55100         2.49097        -0.85385
H         12.11044        29.81456         2.62558
H         15.82371         2.56962        -1.00663
H         14.47308        29.91070         2.71442
H         18.22897         2.48760        -1.30156
H         16.90790        30.00990         2.98881
H         20.37941         3.68564        -1.44520
H         21.67247         5.73635        -1.28234
H         21.87402         8.13147        -0.74790
H         21.97751        10.11411        -0.38698
H         21.96521        12.53226        -0.46479
H         21.98631        14.46748        -0.43719
H         21.96524        16.90377        -0.37584
H         22.01607        18.81349        -0.53777
H         22.03995        21.06836        -1.29863
H         21.90181        22.85940        -0.11757
H         21.80431        25.05479         0.97887
H         21.54484        26.41873         2.32234
H         21.29705        28.40796         3.76105
H         19.19035        29.74598         3.71369
