         424
 CSIRO Nanostructure Databank - Neutral Graphene Oxide Data Set
C          1.22401         3.41411        -0.31931
C          0.00725         4.12727        -0.25806
C          1.17155         6.22553        -0.95531
C         -0.04155         5.48556        -0.45872
C          1.17162         7.71551        -0.68255
C         -0.02324         8.43804        -0.72546
C          1.15606        10.55684        -0.44421
C         -0.03757         9.82604        -0.58608
C          1.15583        12.00552        -0.32778
C         -0.04967        12.73951        -0.25633
C          1.15738        14.85606        -0.12906
C         -0.04992        14.11906        -0.15076
C          1.16323        16.30180        -0.01920
C         -0.03665        17.04268         0.11880
C          1.18455        19.15579         0.21550
C         -0.02770        18.41894         0.23144
C          1.20718        20.59354         0.30932
C         -0.03500        21.34779         0.40008
C          1.16970        23.51333         0.07319
C         -0.06478        22.69094         0.33529
C          1.16787        24.83380         0.86093
C         -0.07747        25.65677         0.67785
C          1.20182        27.72801         0.43148
C         -0.03383        27.00699         0.55959
C          1.19027        29.24354         0.41684
C         -0.00125        29.87386        -0.27451
C          1.25815        31.97152        -0.44580
C          0.05538        31.16321        -0.65722
C          1.22437        33.40188        -0.53027
C          0.04287        34.12246        -0.87256
C          1.22632        36.24482        -0.72005
C          0.04348        35.49557        -0.97883
C          1.27321        37.67162        -0.99190
C          3.69142         3.43140        -0.26878
C          2.46038         4.11500        -0.40553
C          3.65266         6.26552        -0.44402
C          2.45211         5.53812        -0.55273
C          3.64333         7.71004        -0.45711
C          2.39657         8.41943        -0.52732
C          3.63102        10.56847        -0.36624
C          2.39308         9.84733        -0.43538
C          3.63061        11.99827        -0.32235
C          2.38823        12.71590        -0.28728
C          3.62992        14.86306        -0.22214
C          2.38675        14.14472        -0.20894
C          3.62992        16.29151        -0.17586
C          2.39547        17.00972        -0.04644
C          3.64769        19.14870         0.06178
C          2.40714        18.43733         0.06890
C          3.66856        20.56274         0.26753
C          2.42429        21.28824         0.33165
C          3.62712        23.43319         0.54055
C          2.45308        22.74247         0.36213
C          3.63945        24.89959         0.52292
C          2.43778        25.60917         0.57878
C          3.68861        27.76037         0.42250
C          2.42159        27.04004         0.46364
C          3.71681        29.14717         0.27022
C          2.45646        29.80513        -0.22871
C          3.66041        32.02806         0.10549
C          2.45729        31.31264        -0.15981
C          3.61318        33.43267         0.10995
C          2.41871        34.13236        -0.24290
C          3.59826        36.34030        -0.01716
C          2.38306        35.56333        -0.31918
C          3.64359        37.81821        -0.33758
C          2.41183        38.40299        -0.89127
C          6.15766         3.45678        -0.10595
C          4.91174         4.13431        -0.21654
C          6.10628         6.29677        -0.15009
C          4.88739         5.56927        -0.26755
C          6.09846         7.72167        -0.21417
C          4.85878         8.42713        -0.34212
C          6.10686        10.57275        -0.30458
C          4.86340         9.85966        -0.34289
C          6.10061        12.00288        -0.32071
C          4.86467        12.70933        -0.30572
C          6.08882        14.86432        -0.32741
C          4.85766        14.14732        -0.27238
C          6.06493        16.27923        -0.40746
C          4.85928        17.00525        -0.27704
C          6.08069        19.17984        -0.15603
C          4.87172        18.45000        -0.14893
C          6.11545        20.56470         0.16516
C          4.89909        21.25038         0.38463
C          6.15798        23.40745         0.46885
C          4.90315        22.68587         0.87046
C          6.15452        24.88163         0.17193
C          4.87813        25.61814         0.45975
C          6.18131        27.74998         0.54345
C          4.91833        27.01456         0.48458
C          6.17579        29.19532         0.54486
C          4.93764        29.89888         0.37055
C          6.14052        32.05826         0.51691
C          4.91176        31.31539         0.34473
C          6.11118        33.45122         0.52038
C          4.80876        34.20396         0.60840
C          6.16140        36.31330        -0.13807
C          4.87863        35.56940        -0.04276
C          6.14856        37.79073        -0.30980
C          4.95722        38.46280        -0.52695
C          8.61961         3.49573         0.07567
C          7.36506         4.15946         0.04360
C          8.53029         6.34050         0.22348
C          7.32887         5.60790         0.07905
C          8.55012         7.71541        -0.01386
C          7.33013         8.43246        -0.18607
C          8.59537        10.57857        -0.19482
C          7.33728         9.86255        -0.25075
C          8.55945        12.01238        -0.20054
C          7.35066        12.71420        -0.30022
C          8.55769        14.88172        -0.43682
C          7.34468        14.16484        -0.35737
C          8.59085        16.28438        -0.54616
C          7.31583        16.99282        -0.68229
C          8.61824        19.17755        -0.33758
C          7.32566        18.51287        -0.54807
C          8.59510        20.57032         0.00716
C          7.39422        21.25864         0.21230
C          8.59441        23.44037         0.26746
C          7.37975        22.71497         0.36238
C          8.65642        24.86036         0.61839
C          7.35760        25.60030         0.74948
C          8.65172        27.74073         1.14494
C          7.37438        27.06389         0.70922
C          8.65364        29.21634         0.81550
C          7.40455        29.90569         0.64456
C          8.63456        32.02444         0.70300
C          7.40682        31.33785         0.62199
C          8.65839        33.48584         0.85698
C          7.32756        34.24364         0.74574
C          8.60255        36.32461         0.25681
C          7.39917        35.65109         0.31794
C          8.61321        37.75344        -0.06260
C          7.40664        38.44676        -0.29658
C         11.01331         3.52072         0.61361
C          9.81935         4.17822         0.39997
C         11.03680         6.37897         0.57254
C          9.73551         5.64059         0.79183
C         11.07364         7.74371         0.23182
C          9.84668         8.39785        -0.35440
C         11.11831        10.58853        -0.47453
C          9.81641         9.88849        -0.17941
C         11.10540        12.05058        -0.14734
C          9.81905        12.79209         0.09234
C         11.08330        14.91492        -0.30690
C          9.84155        14.11981        -0.65286
C         11.04792        16.31052        -0.33069
C          9.81627        17.01944        -0.53165
C         11.09177        19.18638        -0.82862
C          9.80674        18.45722        -0.50739
C         11.12784        20.63027        -0.38721
C          9.89480        21.26334         0.11848
C         11.04337        23.52232        -0.38680
C          9.88697        22.75728         0.21400
C         11.09790        24.95512         0.08788
C          9.91288        25.62027         0.44826
C         11.12260        27.72546         0.63287
C          9.91728        27.02156         0.68630
C         11.13508        29.15630         1.13676
C          9.85878        29.90279         0.81262
C         11.11936        32.05361         0.70323
C          9.88352        31.33257         0.71475
C         11.12101        33.48538         0.54770
C          9.89818        34.21497         0.57749
C         11.08579        36.32774         0.23707
C          9.86744        35.61992         0.40511
C         11.07741        37.75812         0.03656
C          9.83832        38.43629        -0.10390
C         13.45843         3.52144         0.99021
C         12.17023         4.23392         1.25230
C         13.46600         6.37503         0.82681
C         12.22373         5.68727         0.84583
C         13.47745         7.78685         0.70084
C         12.29414         8.46813         0.34679
C         13.54434        10.59396         0.11760
C         12.34456         9.89399         0.08243
C         13.55807        12.03627        -0.10571
C         12.29251        12.75341        -0.11583
C         13.54533        14.90467        -0.08089
C         12.29584        14.20204        -0.10838
C         13.55723        16.30895        -0.05762
C         12.26722        17.06726         0.13553
C         13.53568        19.14541        -0.41236
C         12.34456        18.47241        -0.39936
C         13.57288        20.60250        -0.85277
C         12.30606        21.33635        -0.45339
C         13.54845        23.48578        -0.31965
C         12.35284        22.77745        -0.29676
C         13.56723        24.93706        -0.18621
C         12.32660        25.65028         0.04136
C         13.57556        27.77290         0.27357
C         12.34209        27.05026         0.32142
C         13.54984        29.18560         0.48998
C         12.38808        29.90822         0.76919
C         13.58614        32.08518         0.66650
C         12.37957        31.35151         0.75142
C         13.59773        33.50486         0.44299
C         12.34230        34.20210         0.39490
C         13.54775        36.34171         0.11151
C         12.32559        35.62372         0.25460
C         13.53512        37.77187        -0.01678
C         12.29072        38.45338        -0.05771
C         15.89136         3.46667         0.66798
C         14.66407         4.19664         0.86359
C         15.94131         6.34846         0.86345
C         14.69752         5.64094         0.89660
C         15.99187         7.73218         0.80520
C         14.73828         8.54170         1.04588
C         16.00381        10.58332         0.29285
C         14.79434         9.93061         0.44519
C         16.02538        11.94989        -0.37384
C         14.75423        12.73262        -0.16614
C         16.01023        14.86566        -0.18938
C         14.78514        14.17044        -0.16033
C         16.03984        16.29806        -0.09524
C         14.78512        17.02978        -0.05363
C         15.99022        19.20140         0.06035
C         14.76055        18.44189        -0.12400
C         16.02025        20.64836        -0.23189
C         14.82315        21.34644        -0.43136
C         16.03753        23.47191        -0.33125
C         14.81436        22.76562        -0.37172
C         16.03797        24.92803        -0.35086
C         14.77778        25.63821        -0.20601
C         16.00459        27.78352        -0.26094
C         14.81201        27.08599        -0.05152
C         16.00945        29.28784        -0.23668
C         14.84636        29.87927         0.53393
C         16.13509        32.08055         0.41666
C         14.87011        31.37207         0.71212
C         16.12546        33.57119         0.62457
C         14.80477        34.22294         0.29320
C         15.99850        36.35848        -0.11017
C         14.79294        35.63848         0.09166
C         15.98940        37.78448        -0.16454
C         14.75260        38.47295        -0.10881
C         18.34525         3.39426         0.42135
C         17.12587         4.09719         0.66448
C         18.51056         6.26133         0.65174
C         17.18973         5.54909         0.92213
C         18.49579         7.70908         0.43110
C         17.30349         8.47476         0.95249
C         18.45808        10.53786         0.14213
C         17.26318         9.89656         0.43696
C         18.52898        12.04068         0.28082
C         17.26198        12.75153        -0.09278
C         18.52399        14.85356        -0.24320
C         17.26241        14.12637        -0.17358
C         18.51552        16.27419        -0.28169
C         17.27148        16.97676        -0.11491
C         18.54518        19.17459        -0.23063
C         17.31548        18.42937         0.08289
C         18.51619        20.59884        -0.25976
C         17.26752        21.32882        -0.22118
C         18.51032        23.44087        -0.47998
C         17.26758        22.74664        -0.35328
C         18.48316        24.89124        -0.69863
C         17.22011        25.62243        -0.53931
C         18.52838        27.79613        -0.41412
C         17.23462        27.10444        -0.82039
C         18.54063        29.30390        -0.48478
C         17.34096        29.88004         0.29478
C         18.56446        32.11397         0.11209
C         17.31576        31.40033         0.25118
C         18.55074        33.54911         0.00621
C         17.33130        34.23686         0.04073
C         18.52364        36.40210        -0.24046
C         17.25635        35.62941        -0.49910
C         18.46866        37.82462        -0.20501
C         17.21666        38.49590        -0.25313
C         19.53598         4.05211         0.15385
C         20.73723         6.16018        -0.40037
C         19.62909         5.46406         0.13840
C         20.74991         7.53973        -0.48065
C         19.62866         8.33779        -0.06351
C         20.82837        10.49579        -0.44802
C         19.67426         9.80417        -0.10681
C         20.86241        11.91456        -0.56083
C         19.75641        12.69162        -0.30310
C         20.93588        14.87746        -0.58583
C         19.74677        14.14283        -0.38949
C         20.93066        16.26526        -0.59744
C         19.73740        16.99824        -0.43742
C         20.93513        19.19891        -0.64967
C         19.74087        18.45972        -0.44967
C         20.93640        20.57876        -0.60126
C         19.73859        21.31071        -0.41199
C         20.95207        23.50138        -0.24302
C         19.73228        22.75669        -0.43131
C         20.97100        24.85911        -0.15752
C         19.80118        25.65797        -0.52230
C         20.90560        27.81437         0.15175
C         19.71994        27.11399        -0.22332
C         20.92895        29.20075         0.29328
C         19.80069        29.96778         0.01012
C         21.00211        32.15076        -0.06556
C         19.79807        31.40953         0.04099
C         20.99124        33.53892        -0.16726
C         19.79089        34.26766        -0.15335
C         20.94538        36.49458        -0.04443
C         19.76139        35.72858        -0.15941
C         20.89788        37.89171        -0.02480
C         19.68138        38.55831        -0.10078
O          7.95587        33.97805         2.05022
O         10.14660        21.95601         1.41097
O         16.67127        18.87927         1.32689
O          5.55923        35.59710        -1.32510
O          3.47351        37.30761         1.06056
O          7.97347        25.06461         1.96179
O          7.24511        17.86322        -1.86996
O         18.07126         5.90283         2.04521
O         19.27139        25.34809        -1.86586
O         15.07835        30.43808         1.86744
O         11.91378         4.22483         2.73041
H         12.65829         4.70414         3.15466
O         16.25751        33.73310         2.10008
H         15.59147        33.14355         2.51699
O         11.28822        10.51994        -1.94493
H         11.04539         9.59298        -2.20270
O          1.16282        23.85987        -1.33989
H          1.09676        23.02764        -1.85273
O         17.18126        27.23821        -2.32294
H         17.86917        26.60828        -2.65550
O          8.67771        27.65516         2.61836
H          8.51919        26.70035         2.83187
O          1.19820        24.45329         2.27117
H          1.35919        25.26265         2.79944
O         13.61448        20.58928        -2.31389
H         12.80627        20.09864        -2.60960
O         17.53577        29.45776         1.65555
H         16.77432        29.80478         2.18317
O         17.15715        35.48334        -1.98353
H         17.25399        36.38208        -2.36554
O         16.08232        11.66857        -1.82632
H         15.20341        11.31780        -2.08816
O         10.71465        23.58589        -1.81958
H         11.45409        24.04123        -2.27573
O         11.14195        19.21169        -2.31311
H         10.29345        19.58788        -2.63315
O          9.90065        13.81727        -2.07361
H          9.89687        14.66401        -2.56675
O         18.43801        29.66915        -1.89294
H         18.04662        28.89900        -2.37487
O          1.17641        29.66507         1.81039
H          0.32624        29.38077         2.20527
O         14.69504         8.73409         2.51067
H         15.62624         8.92292         2.79119
O          4.59473        34.46614         2.03068
H          4.62247        33.60979         2.50686
O          9.52321         5.65182         2.24081
H         10.26577         5.12740         2.63979
O         12.08737        17.20485         1.59948
H         12.91254        17.59747         1.95786
O          1.11378         6.11767        -2.43820
H          1.13363         5.16007        -2.65212
O         18.65946        12.24752         1.74505
H         19.40704        11.69111         2.05190
O          4.93787        22.61625         2.34714
H          5.82739        22.29317         2.60652
O          6.35871        25.00559        -1.28861
H          5.55141        24.66756        -1.73158
O          9.97638         8.15993        -1.83759
H          9.12717         8.44037        -2.24426
O         17.49737         8.58993         2.42082
H         17.71374         7.67025         2.72355
O         11.15824        29.04501         2.60118
H         10.32310        28.58113         2.86711
O          2.37522        29.44639        -1.64477
H          3.16623        29.81263        -2.09251
O          9.77633        13.11634         1.51582
H          9.77431        12.27664         2.02109
O         15.78940        29.74239        -1.60394
H         16.09103        29.03477        -2.21635
H          1.23098         2.32426        -0.18012
H         -0.91734         3.57936        -0.02260
H         -1.01052         6.00136        -0.41062
H         -0.97816         7.91886        -0.88321
H         -1.00581        10.34233        -0.62127
H         -1.01568        12.21820        -0.27425
H         -1.01596        14.63717        -0.09177
H         -1.00451        16.52505         0.14353
H         -0.98952        18.93644         0.33938
H         -0.98020        20.80440         0.53495
H         -1.03375        23.20803         0.38577
H         -1.05259        25.15881         0.77638
H         -0.98009        27.56776         0.52728
H         -0.92956        29.30239        -0.41975
H         -0.82737        31.62977        -1.11732
H         -0.88719        33.57603        -1.07907
H         -0.87282        36.02598        -1.27587
H          0.35827        38.14105        -1.38395
H          3.69170         2.33506        -0.17817
H          2.43182        39.45049        -1.22766
H          6.17007         2.35687        -0.12781
H          4.98005        39.53923        -0.75809
H          8.64925         2.40523        -0.07315
H          7.44361        39.53331        -0.46680
H         11.09842         2.44183         0.41105
H          9.84412        39.51869        -0.30114
H         13.45329         2.42101         0.97549
H         12.28066        39.54531        -0.19028
H         15.83657         2.37721         0.52464
H         14.74336        39.57120        -0.16572
H         18.30648         2.29792         0.34397
H         17.19785        39.59524        -0.26865
H         20.42023         3.46562        -0.13658
H         21.60085         5.58476        -0.76479
H         21.63709         8.03296        -0.89869
H         21.75282         9.94910        -0.67646
H         21.80386        12.37534        -0.89305
H         21.89342        14.35188        -0.70228
H         21.88810        16.78663        -0.72579
H         21.88492        18.68016        -0.83271
H         21.88417        21.11184        -0.75502
H         21.87288        22.94927        -0.00960
H         21.88463        25.35934         0.19084
H         21.83569        27.25674         0.31980
H         21.85960        29.68449         0.62344
H         21.96285        31.62060        -0.12073
H         21.95198        34.06144        -0.27241
H         21.92164        35.99736         0.03318
H         21.83209        38.46412         0.06180
H         19.64501        39.65653        -0.06408
