         234
 CSIRO Nanostructure Databank - Neutral Graphene Oxide Data Set
C          1.33961         1.26534         0.23413
C          1.28498         2.61469         0.65579
C          2.47314         0.59690        -0.20729
C          2.32727         3.56311         0.61610
C          1.34511         6.74019         1.59844
C          1.35057         8.13262         1.28685
C          2.31078         5.89207         1.12511
C          2.37334         8.70454         0.57377
C          1.18573        10.89416         0.17419
C          1.17509        12.21568        -0.27147
C          2.36436        10.10863         0.17952
C          2.35483        12.79564        -0.78279
C          1.59249        14.90136        -1.84314
C          1.74315        16.26771        -2.14234
C          2.54669        14.20780        -1.12105
C          2.88806        16.99050        -1.73483
C          3.04476        18.36521        -2.14316
C          3.64694         1.32651        -0.57330
C          3.46147         3.51022        -0.20693
C          4.96446         1.03145        -0.30100
C          4.70200         4.21977        -0.11411
C          3.44478         6.36263         0.28820
C          3.48487         7.85834         0.05301
C          4.73853         5.59692         0.17178
C          4.83666         8.51353        -0.10412
C          3.55275        10.67922        -0.33231
C          3.47262        11.95197        -0.87724
C          4.88725         9.99567        -0.28574
C          5.32148        13.07612        -0.44817
C          3.62969        14.99502        -0.38095
C          3.88732        16.36964        -0.95170
C          4.95781        14.31764        -0.04304
C          5.07129        17.07913        -0.56339
C          4.15086        19.07055        -1.78196
C          5.20309        18.46619        -1.00793
C          6.06053         1.95704        -0.46950
C          5.93306         3.45821        -0.53158
C          7.31929         1.38099        -0.44397
C          7.23862         4.21393        -0.35771
C          5.96360         6.33521         0.25672
C          6.02529         7.73987         0.35957
C          7.22098         5.56178         0.29289
C          7.24987         8.44072         0.60722
C          6.06459        10.74333         0.34025
C          6.31145        12.22920         0.22098
C          7.19183         9.90951         0.89419
C          7.28998        12.85381         0.93828
C          5.89990        15.10623         0.84241
C          6.07962        16.49909         0.22703
C          7.22933        14.33602         1.13095
C          7.28295        17.27655         0.54592
C          6.33844        19.20518        -0.71969
C          7.44882        18.62869        -0.04785
C          8.55652         2.11223        -0.47267
C          8.52680         3.49969        -0.32797
C          9.80201         1.42700        -0.58879
C          9.75394         4.30877        -0.62253
C          8.53348         6.31605         0.42081
C          8.48896         7.78113         0.56163
C          9.79025         5.67716         0.00231
C          9.74869         8.47016         0.60480
C          8.47076        10.60524         1.30762
C          8.46075        12.13118         1.58509
C          9.76696         9.88733         1.06913
C          9.77569        12.82348         1.18646
C          8.54036        15.07277         1.31605
C          8.54529        16.55705         1.01666
C          9.88834        14.31124         1.52026
C          9.80310        17.17071         0.48907
C          8.64133        19.32443         0.08963
C          9.86699        18.65208         0.38544
C         11.02920         2.12316        -0.57001
C         11.04046         3.55341        -0.46504
C         12.26605         1.42805        -0.63636
C         12.24382         4.26170        -0.36738
C         10.98042         6.37554         0.07987
C         10.94363         7.77906         0.42678
C         12.25736         5.69034        -0.14505
C         12.22890         8.48716         0.61668
C         10.99042        10.68628         0.91163
C         10.95610        12.09853         1.00081
C         12.21077         9.97497         0.49751
C         12.27250        12.81977         1.07885
C         11.10279        14.96510         0.87549
C         11.06725        16.37880         0.41944
C         12.27193        14.28373         0.80685
C         12.34278        17.12533         0.33684
C         11.09075        19.28316         0.32020
C         12.33501        18.55680         0.30496
C         13.48873         2.11417        -0.64040
C         13.49249         3.55931        -0.48961
C         14.71701         1.40590        -0.72384
C         14.69725         4.26966        -0.50723
C         13.48088         6.35618        -0.03994
C         13.52747         7.77122         0.38908
C         14.72832         5.67969        -0.26462
C         14.79238         8.53390         0.20989
C         13.53703        10.66730         0.44793
C         13.56480        12.07442         0.93707
C         14.81487         9.91383         0.39354
C         14.86855        12.81433         0.78987
C         13.49153        14.90988         0.13682
C         13.54563        16.41786         0.25369
C         14.81929        14.29234         0.53629
C         14.77659        17.10154         0.09710
C         13.55188        19.23727         0.18771
C         14.77974        18.53652         0.07284
C         15.95165         2.07419        -0.81065
C         15.92988         3.55222        -0.89199
C         17.17801         1.39739        -0.74960
C         17.23729         4.28832        -0.86214
C         15.96185         6.39542        -0.19641
C         16.00420         7.79621         0.00829
C         17.26047         5.62935        -0.14777
C         17.25011         8.52612        -0.03461
C         16.05017        10.65199         0.30810
C         16.08494        12.06152         0.43226
C         17.25454         9.91383         0.05613
C         17.31147        12.80213         0.23676
C         16.05976        14.98210         0.11777
C         16.03133        16.39226        -0.03561
C         17.27712        14.27448         0.14631
C         17.24570        17.10704        -0.23322
C         15.99653        19.23600        -0.08283
C         17.23313        18.56347        -0.25198
C         18.42758         2.08813        -0.69306
C         18.46524         3.48296        -0.75112
C         19.67389         1.36832        -0.51828
C         19.74660         4.18702        -0.78669
C         18.49795         6.44884        -0.42602
C         18.51193         7.80673        -0.23043
C         19.76716         5.72981        -0.67003
C         19.78439         8.52050        -0.12370
C         18.50211        10.65678        -0.34741
C         18.49491        12.11665         0.02508
C         19.78901         9.93164        -0.00906
C         19.80585        12.82370        -0.17584
C         18.47790        15.00431        -0.02845
C         18.47174        16.39390        -0.23982
C         19.76086        14.29710         0.18088
C         19.74779        17.09588        -0.51630
C         18.42458        19.29182        -0.33263
C         19.70610        18.64812        -0.59618
C         20.86772         2.01792        -0.36229
C         20.96750         3.44989        -0.45383
C         22.14546         4.15713        -0.24785
C         21.02524         6.35621        -0.24555
C         21.00359         7.79140        -0.00540
C         22.16934         5.57081        -0.15576
C         22.18583         8.50340         0.28645
C         20.98835        10.62164         0.24396
C         20.98655        12.11418         0.53649
C         22.17106         9.88324         0.43067
C         22.25151        12.85424         0.12044
C         21.06440        15.02877         0.14912
C         21.04799        16.47787        -0.19399
C         22.27545        14.18671        -0.05759
C         22.18568        17.24173        -0.19019
C         20.96484        19.35572        -0.35045
C         22.14098        18.67635        -0.26231
O          3.05578         6.94430        -1.00886
O          6.59231         4.11729        -1.67830
O         12.75369        10.48552        -0.79472
O          3.41280         2.55158        -1.23236
O          5.13580         9.13197        -1.42746
O          4.62058        12.46331        -1.49821
O         19.72711        17.79481        -1.79722
O          9.12358         9.93636         2.43221
O         12.99383        12.30769         2.25987
O          6.08969        10.33175         1.76031
O         12.98712         7.97995         1.76669
O         14.99321        13.79139         1.88832
O          2.21757         4.58240         1.57561
O         19.84838         5.06536        -1.97085
O          7.69488        14.75150         2.45525
O         16.52250         4.15870        -2.11610
O          7.76695        17.30661         1.96467
O         10.20115        16.52669        -0.78821
O         20.39477        14.72188         1.44470
O          7.90960         5.57669         1.57478
O          9.64259         4.59388        -2.08804
H          8.69799         4.49754        -2.34752
O         10.15946        14.38867         2.93977
H          9.42439        13.89494         3.38252
O          2.94356        15.22506         0.90028
H          3.62829        15.46865         1.57370
O         13.36441        14.60049        -1.28610
H         12.58662        15.08688        -1.63509
O         17.41881         5.22172         1.26721
H         17.34362         6.02716         1.82303
O          8.34286        12.29139         3.01995
H          8.77247        11.49655         3.41899
O         18.44730        10.65216        -1.82525
H         19.25216        11.13677        -2.13072
O         20.83264        12.19093         1.96521
H         20.78522        13.14923         2.20738
O         20.12204        12.76987        -1.60812
H         19.45437        13.30964        -2.08346
O          5.28198        15.33282         2.13640
H          6.02048        15.54273         2.76063
H          0.45277         0.65587         0.46569
H          0.40572         2.90180         1.25117
H          2.49889        -0.50183        -0.17369
H          0.54247         6.33211         2.22550
H          0.52166         8.75023         1.65815
H          0.25018        10.45865         0.55117
H          0.25769        12.81483        -0.18983
H          0.72402        14.35990        -2.24624
H          0.97914        16.77751        -2.74645
H          2.25135        18.83063        -2.74523
H          5.21338         0.02948         0.07881
H          4.27158        20.11935        -2.08959
H          7.38412         0.28274        -0.41631
H          6.42195        20.23781        -1.09003
H          9.80334         0.33132        -0.67997
H          8.68555        20.37818        -0.22426
H         12.26074         0.33125        -0.72104
H         11.12781        20.37640         0.20288
H         14.69848         0.30560        -0.71236
H         13.55726        20.33658         0.15251
H         17.17747         0.29909        -0.68183
H         15.98425        20.33588        -0.08585
H         19.63578         0.27054        -0.46784
H         18.40417        20.37914        -0.16571
H         21.78747         1.44162        -0.18321
H         23.07826         3.60435        -0.06391
H         23.13327         6.04140         0.08328
H         23.13642         7.96743         0.40866
H         23.10496        10.40013         0.69016
H         23.18139        12.28503        -0.02841
H         23.20951        14.68387        -0.35975
H         23.15864        16.76976         0.00820
H         20.93782        20.44788        -0.22298
H         23.08149        19.22716        -0.12055
