         244
 CSIRO Nanostructure Databank - Neutral Graphene Oxide Data Set
C          1.36512         2.03046        -0.87129
C          1.31369         3.43395        -0.71455
C          2.53674         1.34294        -0.65649
C          2.44196         4.16163        -0.32979
C          1.19204         6.35592        -0.26093
C          1.14207         7.71959        -0.22234
C          2.42689         5.61329        -0.27418
C          2.34025         8.52791        -0.44020
C          1.12370        10.76127        -0.29644
C          1.11702        12.11102        -0.39975
C          2.35712        10.00580        -0.26254
C          2.38085        12.86652        -0.70996
C          1.19229        15.08283        -0.25892
C          1.22014        16.47807        -0.09064
C          2.37037        14.33481        -0.32151
C          2.42959        17.16457         0.01655
C          2.48944        18.61696         0.06310
C          3.71920         2.02636        -0.21745
C          3.67169         3.46744        -0.03896
C          4.91594         1.33276        -0.07936
C          4.83309         4.18590         0.30086
C          3.63869         6.30221        -0.13189
C          3.67357         7.75432        -0.35031
C          4.85700         5.61844         0.18806
C          4.87888         8.48381         0.06604
C          3.56404        10.69010        -0.13222
C          3.62039        12.12674        -0.23341
C          4.79207         9.94749         0.24818
C          4.82912        12.82244        -0.17901
C          3.61349        15.00573        -0.20135
C          3.65522        16.42313        -0.02224
C          4.85223        14.27882        -0.27648
C          4.89663        17.09914         0.04990
C          3.65594        19.27360         0.22837
C          4.93745        18.53478         0.50219
C          6.07395         1.95498         0.54042
C          6.02584         3.47030         0.78023
C          7.38740         1.30266         0.43774
C          7.33987         4.22157         1.03104
C          6.06127         6.34830         0.35919
C          6.03790         7.79223         0.34206
C          7.31653         5.65597         0.53496
C          7.32500         8.51648         0.70172
C          6.08744        10.71874         0.37917
C          6.08895        12.14270         0.01732
C          7.35148         9.97847         0.30312
C          7.30311        12.78535        -0.14975
C          6.05923        14.96763        -0.35040
C          6.10802        16.39992        -0.20127
C          7.33221        14.20912        -0.63574
C          7.33711        17.11235        -0.27683
C          6.17833        19.25278         0.06778
C          7.36290        18.54618        -0.16434
C          8.57447         2.01209         0.42156
C          8.57946         3.47173         0.54919
C          9.81445         1.30887         0.24225
C          9.74832         4.16725         0.36812
C          8.51272         6.32694         0.37256
C          8.50304         7.79770         0.04357
C          9.77635         5.62874         0.36521
C          9.79581         8.50967         0.34751
C          8.53676        10.64214         0.08762
C          8.55701        12.08564        -0.08301
C          9.81240         9.92861         0.22106
C          9.77963        12.77896        -0.16609
C          8.53901        14.96187        -0.07068
C          8.60978        16.38479        -0.64587
C          9.83822        14.19868        -0.18362
C          9.86860        17.08571        -0.20289
C          8.62155        19.21964        -0.25525
C          9.85515        18.52172        -0.20433
C         11.02923         1.97258         0.05736
C         10.98730         3.44907        -0.02360
C         12.27339         1.31022         0.00758
C         12.28217         4.19242        -0.02108
C         10.97377         6.33333         0.28941
C         11.02395         7.78649         0.37113
C         12.24238         5.59469         0.49043
C         12.23930         8.47562         0.45925
C         11.01375        10.62628         0.22437
C         11.06869        12.01669        -0.33946
C         12.25768         9.95288         0.74041
C         12.29725        12.78316         0.09232
C         11.05050        14.89510        -0.04991
C         11.05355        16.35943        -0.03708
C         12.28507        14.16483         0.14786
C         12.29637        17.06750         0.07480
C         11.08324        19.20988        -0.12949
C         12.30344        18.50185        -0.02753
C         13.53573         1.97316        -0.03132
C         13.62874         3.49158        -0.17913
C         14.72142         1.26566        -0.00012
C         14.70780         4.07604         0.76032
C         13.51885         6.33301         0.71214
C         13.53357         7.76086         0.21138
C         14.79658         5.59101         0.65069
C         14.77182         8.52242         0.59745
C         13.54751        10.65234         0.35691
C         13.52688        12.02343         0.19444
C         14.79617         9.90180         0.46921
C         14.78426        12.76032        -0.08047
C         13.53258        14.90081         0.60083
C         13.53001        16.37493         0.24891
C         14.81819        14.21879         0.15482
C         14.73433        17.06813         0.25312
C         13.53560        19.19294        -0.01649
C         14.75615        18.49930         0.09308
C         16.02814         1.95321         0.07570
C         16.04497         3.39932         0.44784
C         17.23713         1.37324        -0.54611
C         17.21164         4.23913         0.08319
C         15.98165         6.26919         0.70821
C         15.97973         7.75032         0.93859
C         17.22590         5.57294         0.38429
C         17.30279         8.50938         1.06812
C         16.08238        10.58759         0.42213
C         16.08932        12.00404        -0.01932
C         17.27216         9.94036         0.68355
C         17.33526        12.78325         0.04365
C         16.00752        14.89086         0.20496
C         16.01411        16.34815         0.61183
C         17.29229        14.21254         0.04143
C         17.25829        17.08364         0.18357
C         15.98931        19.19307         0.04286
C         17.23117        18.49941         0.02211
C         18.35663         2.12054        -0.76988
C         18.31637         3.63633        -0.74190
C         19.57869         1.51414        -1.24962
C         19.65763         4.30171        -0.53175
C         18.53274         6.28048         0.49195
C         18.59778         7.70985         0.96062
C         19.73680         5.62458        -0.08584
C         19.95805         8.43410         0.93795
C         18.55737        10.67351         0.58532
C         18.56312        12.08674         0.10708
C         19.86143         9.93837         0.64952
C         19.78033        12.77271        -0.01098
C         18.49343        14.94065         0.03607
C         18.48586        16.38353         0.08006
C         19.77211        14.24150        -0.35545
C         19.69826        17.10574        -0.05439
C         18.43405        19.19474        -0.24485
C         19.67165        18.51579        -0.27516
C         20.73126         2.23583        -1.38678
C         20.81288         3.62396        -1.00682
C         22.04212         4.32488        -1.06306
C         20.97636         6.34628        -0.17341
C         21.04606         7.73156         0.14261
C         22.11309         5.65104        -0.69266
C         22.26891         8.47431         0.02040
C         20.99428        10.58427        -0.14632
C         21.03565        12.08378         0.06609
C         22.28768         9.83727         0.00949
C         22.19738        12.80991         0.22992
C         21.02555        14.95198         0.08824
C         21.02795        16.45455         0.23087
C         22.15753        14.23975         0.34603
C         22.16133        17.13133        -0.49376
C         20.88274        19.19373        -0.60759
C         22.07797        18.46823        -0.80100
O         18.68290         6.63079         1.93761
O          5.29219        10.37229         1.58213
O          5.74835         2.54237         1.87733
O         15.40964        12.26681        -1.31847
O         19.40011        10.63655         1.82061
O         12.71444         5.92089         1.85569
O         11.53081         4.04997        -1.27387
O          3.10800         8.16032        -1.64489
O         16.38220         2.40760         1.48871
O         16.53047         8.15989         2.24461
O          8.71361        16.39297        -2.09728
H          8.12036        15.68567        -2.45141
O         16.02868        16.32019         2.09884
H         16.12788        17.24745         2.40514
O         19.78811        14.30151        -1.84691
H         18.97988        13.84012        -2.16016
O          5.04046        18.47421         1.99187
H          5.82659        17.92407         2.19984
O          8.27037        15.09555         1.35275
H          9.10129        15.36588         1.79751
O          7.48757         4.33749         2.47542
H          7.05054         3.54259         2.86277
O         13.62971         7.59269        -1.25622
H         13.60460         8.48579        -1.66275
O          7.49112         8.46842         2.13653
H          6.75632         8.99397         2.52596
O         13.53998        14.83733         2.06207
H         14.36800        15.28937         2.36152
O         20.49068         8.36429         2.28957
H         20.12218         7.54476         2.69719
O         21.26843        16.71517         1.67024
H         21.34289        17.68757         1.77888
O         14.09562         3.76404        -1.51866
H         13.30628         3.73261        -2.10672
O         11.22632        11.82611        -1.80216
H         11.20047        12.71591        -2.21536
O          7.46151        14.09963        -2.09392
H          6.64890        13.66653        -2.43187
O         14.32379         3.77272         2.10993
H         15.01418         3.16970         2.47784
O         12.19688        10.08611         2.21891
H         11.49074         9.48595         2.54302
O          2.47850        12.87561        -2.18512
H          2.42319        11.94256        -2.48427
O         20.58163        10.39396        -1.54743
H         21.25494        10.82030        -2.11887
O         17.95778         4.00399        -2.13028
H         18.60331         3.56199        -2.72257
O          8.28961         7.93163        -1.39784
H          9.04442         7.50336        -1.85429
H          0.46061         1.49360        -1.18986
H          0.37194         3.95320        -0.93808
H          2.57850         0.25318        -0.79507
H          0.25179         5.79773        -0.14757
H          0.18654         8.21870        -0.00766
H          0.17167        10.21993        -0.19847
H          0.15480        12.64146        -0.41649
H          0.21556        14.59381        -0.37609
H          0.27401        17.03814        -0.07492
H          1.54994        19.17455        -0.07176
H          4.99171         0.29227        -0.42851
H          3.67922        20.37324         0.25701
H          7.40842         0.21557         0.26759
H          6.21653        20.34662         0.18428
H          9.79645         0.20891         0.26889
H          8.63410        20.31975        -0.23503
H         12.27707         0.21170         0.09023
H         11.09733        20.30901        -0.16714
H         14.70723         0.16405         0.00554
H         13.54182        20.28875        -0.10904
H         17.26189         0.28536        -0.72030
H         15.98403        20.28532        -0.08381
H         19.57478         0.43550        -1.46715
H         18.40291        20.27827        -0.42998
H         21.64865         1.74254        -1.74018
H         22.94003         3.80651        -1.42937
H         23.07562         6.17102        -0.78154
H         23.22510         7.93551        -0.06352
H         23.24809        10.36581        -0.07176
H         23.16868        12.30794         0.33585
H         23.07629        14.76143         0.65117
H         23.10337        16.58442        -0.64176
H         20.85234        20.27069        -0.82324
H         22.95335        18.98811        -1.21791
