         294
 CSIRO Nanostructure Databank - Neutral Graphene Oxide Data Set
C          1.72784         2.08711         1.53228
C          1.49937         3.39959         1.16927
C          2.87553         1.36292         1.14454
C          2.41692         4.08510         0.24865
C          1.18254         6.32721         0.08598
C          1.13742         7.69013         0.12467
C          2.42216         5.58628         0.19109
C          2.29452         8.46025         0.60292
C          1.16372        10.72395         0.60676
C          1.16411        12.09095         0.83773
C          2.32285         9.94090         0.68033
C          2.37694        12.84320         1.19523
C          1.16823        15.12791         0.70635
C          1.18315        16.38039         0.22125
C          2.38452        14.35696         1.08155
C          2.44679        17.08432        -0.20623
C          2.45940        18.58042         0.03410
C          3.91736         1.95799         0.38377
C          3.68245         3.34767        -0.09966
C          5.06665         1.27704         0.00542
C          4.88641         4.17729        -0.53828
C          3.61237         6.27828         0.18307
C          3.61909         7.68386         0.61846
C          4.95583         5.58473         0.12775
C          4.96121         8.40388         0.78003
C          3.62183        10.60257         0.97997
C          3.69077        12.09444         1.17750
C          4.83246         9.91369         0.37195
C          4.94658        12.83703         0.80522
C          3.69692        15.09387         0.96945
C          3.67946        16.48612         0.43732
C          5.02611        14.33570         1.10567
C          4.95055        17.15952         0.08014
C          3.62094        19.26727         0.06295
C          4.92261        18.61341        -0.10499
C          6.13219         1.96362        -0.82397
C          6.21026         3.41363        -0.28182
C          7.49546         1.30721        -0.74233
C          7.39759         4.19571        -0.89699
C          6.05836         6.42533        -0.56831
C          6.11826         7.79761         0.03269
C          7.40493         5.68810        -0.55422
C          7.44549         8.47208         0.19560
C          6.14879        10.65949         0.72054
C          6.07264        12.15953         0.45350
C          7.34621        10.01342         0.00542
C          7.29398        12.85833        -0.13851
C          6.19267        15.03168         0.39591
C          6.12534        16.46905         0.14738
C          7.33775        14.34576         0.11216
C          7.38704        17.22807        -0.00826
C          6.06410        19.30787        -0.39431
C          7.28627        18.53238        -0.83778
C          8.68963         2.00886        -0.75345
C          8.72416         3.50826        -0.50980
C          9.94962         1.35302        -0.80801
C          9.89760         4.22147        -1.17037
C          8.57423         6.37920        -0.59575
C          8.52704         7.89344        -0.75836
C          9.85385         5.70173        -0.97676
C          9.82259         8.62425        -0.50632
C          8.65997        10.70619         0.43104
C          8.61196        12.17977         0.18260
C          9.85761        10.10586        -0.39492
C          9.83052        12.89941         0.18466
C          8.59561        15.01620        -0.40254
C          8.66543        16.48731        -0.04409
C          9.86576        14.27207        -0.04621
C          9.89930        17.20970        -0.48005
C          8.62266        19.22868        -0.87332
C          9.77923        18.41869        -1.42202
C         11.19528         2.03028        -0.94191
C         11.23481         3.49176        -1.38269
C         12.39318         1.35595        -0.79956
C         12.38445         4.23656        -0.67617
C         11.11504         6.55106        -0.96309
C         10.98383         7.81720        -0.11792
C         12.43849         5.74842        -0.79266
C         12.23526         8.49809         0.37485
C         11.12737        10.70061         0.16214
C         11.13456        12.17816         0.52481
C         12.26433         9.98698         0.34601
C         12.36163        12.83637        -0.07373
C         11.18756        15.01461         0.10974
C         11.20693        16.44702        -0.41910
C         12.35731        14.19652        -0.40435
C         12.21224        16.88995        -1.39677
C         11.12621        19.10191        -1.43821
C         12.28382        18.36516        -1.51926
C         13.71670         2.06318        -0.96064
C         13.60347         3.45915        -0.25330
C         14.94076         1.18436        -0.71216
C         14.84138         4.20845         0.11639
C         13.69699         6.45377        -0.36528
C         13.52192         7.65444         0.57674
C         15.02022         5.67162        -0.19772
C         14.81249         8.53630         0.76957
C         13.58412        10.72505         0.51729
C         13.55818        12.08272        -0.19707
C         14.69361         9.83547        -0.06883
C         14.73181        12.66476        -0.66657
C         13.36596        14.71618        -1.23988
C         13.03545        15.90717        -1.98076
C         14.71762        14.00158        -1.41294
C         15.21208        17.23299        -1.90866
C         13.54951        19.03012        -1.21434
C         14.78472        18.43618        -1.11866
C         15.95995         1.44906         0.15378
C         15.89127         3.59842         0.72431
C         17.34624         1.06020         0.05421
C         17.25198         4.15576         0.74899
C         16.00681         6.31372         0.81756
C         16.08176         7.77126         0.45497
C         17.31155         5.55405         0.75607
C         17.23433         8.43098         0.21764
C         15.98462        10.59178        -0.18774
C         15.98111        11.94436        -0.46340
C         17.24806         9.93489         0.28042
C         17.23888        12.67371        -0.47105
C         15.95568        14.89933        -0.98433
C         16.08930        16.23828        -1.18501
C         17.11496        14.15424        -0.38042
C         17.36742        17.08347        -0.97621
C         15.88477        19.04802        -0.41370
C         17.09597        18.40529        -0.25467
C         18.43002         1.90205         0.34734
C         18.41223         3.32275         0.60226
C         19.74509         1.23946         0.30264
C         19.73625         4.01531         0.61554
C         18.56388         6.30115         0.75866
C         18.54771         7.76161         0.41013
C         19.81836         5.51087         0.65724
C         19.69835         8.40874        -0.34575
C         18.53566        10.59209        -0.16951
C         18.46374        12.02781        -0.36853
C         19.72559         9.90759        -0.06068
C         19.75766        12.76451        -0.38528
C         18.35433        14.88558        -0.00765
C         18.53596        16.32360        -0.36118
C         19.68588        14.19311         0.02133
C         19.64024        17.03423         0.36602
C         18.17852        19.04529         0.44505
C         19.39744        18.45354         0.71884
C         20.92657         1.87743         0.20952
C         20.95886         3.36454        -0.01917
C         22.22613         4.06195         0.44739
C         21.07296         6.19118         0.16624
C         21.03698         7.65608        -0.21870
C         22.29205         5.40259         0.52769
C         22.26054         8.48737        -0.13975
C         20.99572        10.62072         0.34908
C         21.09406        12.01243        -0.33514
C         22.24424         9.80786         0.09206
C         22.20502        12.89117         0.21705
C         20.71968        14.74842         0.98841
C         20.67184        16.27000         1.11804
C         22.07105        14.13245         0.70941
C         21.53628        16.96102         1.91266
C         20.40202        19.10340         1.52232
C         21.42762        18.39010         2.07649
O          3.81213        11.15665         2.32692
O         13.34992         6.37710        -1.77250
O          3.61900        16.25539         1.88541
O         21.08474         6.59206        -1.24368
O         12.50913         3.69507         0.68201
O         15.21985        17.30627        -3.13024
O         19.76485        16.64569        -1.07278
O          2.83454         7.85585         1.85400
O         11.22820         7.94220         1.30364
O         18.73981         7.37150         1.79004
O          2.22301        13.70525         2.38396
O          9.62018         5.06892        -2.31742
O         10.83355        17.43356         0.60698
O         17.38724        14.61355         1.03234
O         19.98371        13.85986        -1.36615
O          8.18377        17.04066         1.21568
O         14.97924         8.80128         2.14597
O         20.04594         4.71186         1.86405
O          2.57415         3.41680        -1.06649
O         15.71200         2.31257         1.23547
O          7.28237         4.11526        -2.33782
H          6.51626         4.68916        -2.59131
O          6.42379         3.19674         1.13044
H          6.21924         4.03248         1.62140
O         20.81974         3.58771        -1.45181
H         21.64769         3.30317        -1.89074
O         13.38523        15.93586        -3.29105
H         13.22065        16.82157        -3.67688
O         13.31218         6.97059         1.82077
H         13.57696         7.61967         2.52207
O          7.08371        12.83155        -1.60448
H          6.99549        11.87604        -1.86007
O         14.27856         9.41481        -1.39541
H         14.57155        10.08803        -2.04509
O          7.92770         8.13874         1.51225
H          7.26951         8.47512         2.16543
O          2.60064        16.85404        -1.63875
H          1.94768        17.41172        -2.11009
O         11.40859        15.09528         1.55617
H         11.04808        15.97194         1.84049
O         11.13571         7.16296        -2.29444
H         11.35008         6.45736        -2.94248
O          9.69334        10.65132        -1.75739
H         10.39495        10.25561        -2.31939
O         20.27596        14.23448         2.28032
H         20.96155        14.44055         2.94920
O         19.30318         8.33919        -1.74429
H         19.78325         7.57870        -2.14917
O         20.90476        10.81853         1.78560
H         19.95851        10.84983         2.04645
O          5.72783         6.62427        -1.98135
H          6.44510         7.20577        -2.34049
O         17.75488        17.47059        -2.31433
H         18.74104        17.44380        -2.34937
O         14.94103        13.69224        -2.80483
H         14.82534        14.52172        -3.32245
O         15.75334         5.77959        -1.44615
H         15.08546         5.79302        -2.17173
O          8.14222         8.06882        -2.16821
H          8.83727         7.60316        -2.68903
O          5.73556         1.91268        -2.21118
H          6.28999         2.58322        -2.68269
O          8.54607        15.04706        -1.86775
H          8.10108        14.20463        -2.14800
O          8.98078         3.69376         0.89723
H          8.22451         3.28341         1.38575
O          9.50999        17.90250        -2.75650
H          9.46839        18.66714        -3.36808
O         17.22889        10.24309         1.72269
H         16.39288         9.80529         2.08944
O          6.38692        10.54824         2.14076
H          5.56953        10.88411         2.59778
O          5.33941         5.48044         1.52830
H          5.42928         6.39666         1.90111
O          4.73846         4.37817        -1.95203
H          3.80942         4.12858        -2.18199
O         11.48867         3.48156        -2.80972
H         10.83754         4.09933        -3.22587
O          5.37423        14.37187         2.51369
H          4.94979        15.17637         2.89290
O          7.12498        10.23537        -1.40835
H          7.97433        10.04861        -1.89059
O          4.55493         9.94751        -1.03749
H          5.38749         9.73646        -1.52673
O          5.27933         8.27867         2.20186
H          4.42319         8.40196         2.68445
O         21.45502        11.72051        -1.70320
H         21.27583        12.53598        -2.22329
O         15.63258         6.20957         2.19848
H         15.47325         7.14429         2.52638
O          6.93152        18.04119        -2.15828
H          7.73808        17.61936        -2.54835
O         13.84177        11.00471         1.89414
H         13.00291        11.35385         2.28432
O         13.91284         2.38527        -2.37011
H         13.05851         2.69168        -2.76367
O          9.01425        10.44317         1.78981
H          8.25097        10.69474         2.36003
O         11.31175        12.26446         1.97206
H         11.33358        13.22911         2.19043
H          1.00055         1.58843         2.18982
H          0.65016         3.95423         1.59315
H          2.98929         0.32190         1.47952
H          0.27171         5.76248        -0.16205
H          0.20983         8.21651        -0.14187
H          0.20275        10.23626         0.38628
H          0.20649        12.62743         0.83428
H          0.20188        14.66941         0.96448
H          0.22740        16.89563         0.03328
H          1.49846        19.11020         0.12824
H          5.21323         0.23720         0.33755
H          3.60954        20.36300         0.17220
H          7.53268         0.21283        -0.87525
H          6.03898        20.40290        -0.50080
H          9.97094         0.25370        -0.73120
H          8.87178        19.82598         0.02201
H         12.38005         0.29167        -0.51778
H         11.18316        20.19939        -1.38649
H         15.16058         0.51152        -1.55653
H         13.44316        20.04552        -0.79420
H         17.58426         0.06004        -0.34355
H         15.73142        20.04068         0.04056
H         19.73377         0.14004         0.36829
H         17.99829        20.06389         0.82470
H         21.86791         1.30665         0.19483
H         23.10792         3.44621         0.68524
H         23.22112         5.91364         0.82110
H         23.21960         7.97141        -0.30048
H         23.20343        10.34506         0.14148
H         23.22378        12.49130         0.08823
H         22.96799        14.69394         1.01782
H         22.34273        16.43440         2.44515
H         20.30786        20.18226         1.71318
H         22.17526        18.89966         2.69987
