         276
 CSIRO Nanostructure Databank - Neutral Graphene Oxide Data Set
C        -11.28843         0.66573        -0.37947
C        -10.00432         1.44710        -0.42972
C         -8.86980         0.76073         0.29073
C         -7.66541         1.46533         0.38928
C         -6.38704         0.63898         0.38779
C         -5.14303         1.43719         0.69786
C         -3.91922         0.70213         0.24398
C         -2.66376         1.42301        -0.05917
C         -1.45977         0.67612        -0.56944
C         -0.18144         1.41948        -0.81895
C          1.06875         0.65617        -1.39850
C          2.41782         1.40469        -1.25913
C          3.70882         0.62574        -1.35537
C          5.00944         1.43056        -1.26075
C          6.30638         0.68890        -1.13055
C          7.53860         1.47985        -0.76567
C          8.80814         0.75705        -0.39478
C          9.75054         1.51024         0.47792
C         10.65194         0.76832         1.32347
C        -10.06525         2.91598        -0.11680
C         -8.86509         3.62587         0.02902
C         -7.63716         2.86673         0.17693
C         -6.36175         3.59495         0.05118
C         -5.11743         2.90179         0.48432
C         -3.80617         3.57911         0.22482
C         -2.54020         2.79713         0.57052
C         -1.30304         3.57934         0.16622
C         -0.06434         2.77279        -0.15196
C          1.27286         3.43241        -0.07150
C          2.58744         2.71490        -0.44075
C          3.64773         3.66656        -1.06403
C          5.00489         2.92629        -1.16518
C          6.24905         3.61136        -0.68871
C          7.39980         2.92306        -0.42407
C          8.60190         3.65068        -0.02018
C          9.69287         2.88343         0.53443
C         -8.81713         5.05776         0.03275
C         -7.61430         5.82012         0.07931
C         -6.32147         5.09796        -0.02015
C         -5.06053         5.82527         0.32648
C         -3.77483         5.06542         0.27241
C         -2.52631         5.61982         0.95624
C         -1.25925         4.91048         0.43765
C         -0.03931         5.69389        -0.03202
C          1.28735         4.92707         0.18048
C          2.57547         5.69939         0.13060
C          3.87418         4.94937        -0.20727
C          4.96050         5.79508        -0.87314
C          6.29050         5.08099        -0.86151
C          7.49781         5.83193        -0.44586
C          8.62258         5.03578        -0.02038
C         -7.58620         7.19935         0.16121
C         -6.33389         8.00056         0.42680
C         -5.07130         7.16099         0.54024
C         -3.79811         7.96644         0.68531
C         -2.51184         7.14688         0.93260
C         -1.23205         7.86856         0.71728
C          0.09472         7.11192         0.63662
C          1.20973         7.93391        -0.05756
C          2.59148         7.25295         0.22355
C          3.67549         7.98735        -0.55369
C          4.96887         7.28795        -0.81567
C          6.28405         8.02464        -0.57040
C          7.46984         7.20005        -0.27279
C         -6.07209         9.09152        -0.61588
C         -4.85213         9.49105        -1.00913
C         -3.56740         8.79743        -0.60827
C         -2.37972         9.73813        -0.36644
C         -1.26584         9.28255         0.24601
C         -0.05650        10.10405         0.67667
C          1.26304         9.39758         0.36887
C          2.43629        10.06895         0.30206
C          3.68132         9.46257        -0.26205
C          4.99871        10.09377        -0.02186
C          6.16946         9.41930        -0.07862
C        -11.26676        -0.68281        -0.38588
C        -10.04578        -1.45256        -0.14096
C         -8.92226        -0.70059         0.49119
C         -7.67849        -1.44968         0.90222
C         -6.42271        -0.62521         1.26860
C         -5.08622        -1.41543         1.11068
C         -3.86285        -0.74688         0.56444
C         -2.70909        -1.54585         0.04352
C         -1.49476        -0.83592        -0.56180
C         -0.13825        -1.54070        -0.61703
C          1.15326        -0.83713        -0.96932
C          2.50497        -1.47290        -0.70250
C          3.68481        -0.84139        -1.00843
C          5.01189        -1.65307        -1.07601
C          6.31156        -0.80040        -1.04447
C          7.62970        -1.52316        -0.80466
C          8.96825        -0.77023        -0.55202
C          9.70591        -1.41089         0.62909
C         10.57141        -0.58452         1.44783
C         -9.98185        -2.80044        -0.27954
C         -8.82694        -3.62774         0.23895
C         -7.50212        -2.83074         0.28385
C         -6.39430        -3.65079         0.96243
C         -5.10687        -2.92370         1.22940
C         -3.71727        -3.59781         1.37423
C         -2.60534        -2.88823         0.61371
C         -1.34806        -3.56990         0.31239
C         -0.06546        -2.78581         0.21285
C          1.24386        -3.47653         0.37378
C          2.48752        -2.98954        -0.41016
C          3.77378        -3.45074         0.30570
C          5.06540        -2.77135        -0.02198
C          6.41234        -3.50070         0.28609
C          7.61567        -2.98065        -0.49835
C          8.99376        -3.65846        -0.18437
C          9.67489        -2.75637         0.83341
C         -8.61510        -4.93600        -0.48358
C         -7.48929        -5.71211        -0.19670
C         -6.51434        -5.20476         0.89970
C         -5.09355        -5.86574         0.79583
C         -3.79544        -5.13123         1.04763
C         -2.46355        -5.88632         0.81168
C         -1.30380        -5.04459         0.31651
C          0.00197        -5.75292         0.31823
C          1.16728        -4.96012         0.85957
C          2.52378        -5.67972         0.74332
C          3.80807        -4.90123         0.73240
C          5.11256        -5.69063         0.65169
C          6.35269        -5.03304         0.09762
C          7.63766        -5.75330         0.68900
C          8.86237        -5.10581         0.14124
C         -7.39116        -7.03976        -0.63314
C         -6.32749        -7.96232        -0.25907
C         -5.06140        -7.28106         0.26166
C         -3.81389        -7.80042        -0.38771
C         -2.54107        -7.04700        -0.17899
C         -1.22946        -7.75235        -0.42402
C          0.01852        -7.08261         0.04953
C          1.30353        -7.74388        -0.28936
C          2.57431        -7.02694         0.03899
C          3.89817        -7.77094        -0.18154
C          5.10410        -7.17696         0.51757
C          6.38397        -7.89896         0.24229
C          7.56790        -7.23674         0.34464
C         -6.20537        -9.32319        -0.86728
C         -5.02730        -9.97607        -0.95761
C         -3.74421        -9.21881        -0.90957
C         -2.41748        -9.88648        -0.82715
C         -1.25305        -9.22358        -0.57909
C          0.03704        -9.93763        -0.18509
C          1.30798        -9.21925        -0.69366
C          2.59131        -9.91338        -0.25180
C          3.77505        -9.27467        -0.05281
C          5.04734        -9.97856         0.05810
C          6.25232        -9.34260         0.09794
O         -4.05031        -0.89649         2.00549
O          2.03805         5.17713         1.39664
O          5.17596        -6.57349         1.83632
O          4.34400        -2.46277         1.21277
O         -1.53295        -4.38624        -0.96560
O         -1.80333         7.70754         2.09414
O         -7.10952        -5.64009         2.06714
O          5.55287         5.35579        -2.11357
O          7.60768        -2.56905        -1.86337
O         -3.61553         4.34902        -0.98736
O          0.74533        -2.57809         1.41048
O          5.17277         2.30118        -2.45607
O         -1.19522         1.34416        -1.85105
O         -1.85255        -6.90765        -1.44476
O         -3.67786         1.19812        -1.11248
O         -3.92839        -8.07547        -1.82060
O          5.71240         7.86123        -1.91277
O          0.42248        -1.68474        -1.94956
O         -5.84576        -8.10796         1.13843
O          1.95511        -6.87249        -1.29552
O          3.35746         8.92141        -1.62204
O         -5.16349         2.31918         1.83825
O          3.06368         1.19740        -2.53603
O          8.64236         1.34663        -1.72545
O         -6.04626        -3.23736         2.31388
O         -2.49743        -1.42951        -1.43272
O          6.47984        -0.11919        -2.33903
O          0.71626         2.71421         1.09871
O         -8.71256        -1.23837         1.87526
O         -6.21996         4.28484        -1.24012
O         -4.48860        -5.81756         2.13046
O          3.20363        -5.34897         1.98688
O         -0.16485        10.32697         2.09237
H         -0.12084         9.45583         2.54032
O          4.47634         4.56328         1.04575
H          3.74850         4.25693         1.63767
O         -3.19917         7.85072        -1.63315
H         -3.27312         8.27951        -2.51033
O          0.85503         0.63896        -2.81279
H          0.09391         0.04651        -3.00177
O          2.46448        -3.68332        -1.66938
H          1.77567        -3.26102        -2.23440
O         -6.60917         8.68930         1.67359
H         -5.75337         9.07081         1.98660
O          0.81397        -4.91044         2.25457
H          1.60306        -4.61153         2.76037
O         -2.05543        -6.45780         2.06913
H         -2.84213        -6.45542         2.66535
O          6.74731        -3.18413         1.64533
H          5.90909        -3.13122         2.16103
O          0.51409         6.93784         2.00119
H         -0.29255         6.81956         2.55435
O         -3.36551        -3.53731         2.76966
H         -4.15167        -3.86169         3.26571
O          0.11912        -9.95323         1.24437
H         -0.68717       -10.37270         1.60777
O          4.98251        -2.31541        -2.34561
H          5.38188        -1.70889        -3.00959
O          1.25871        -9.29886        -2.13361
H          1.63790        -8.46716        -2.49575
O          2.99681         7.54694         1.57879
H          2.42915         7.00344         2.17627
O         -2.44485         2.53376         1.98232
H         -2.52708         3.39267         2.46419
O         -2.69370         5.24349         2.35637
H         -2.25999         5.93242         2.90919
O          4.32388        -7.52597        -1.56478
H          3.50365        -7.38734        -2.09974
O         -9.19665        -4.07618         1.56062
H         -8.47490        -4.68818         1.92485
O         -3.96612         8.90877         1.76141
H         -3.13381         8.90750         2.29328
O          0.94595         7.97896        -1.47476
H          1.70300         8.47361        -1.89378
O         -0.26730         5.73891        -1.44856
H          0.24178         6.47852        -1.86245
O         -7.07931        -2.63014        -1.09013
H         -6.80800        -1.68959        -1.22846
O          9.83132        -3.64305        -1.35173
H          9.89048        -2.71424        -1.69543
O         -9.61038         1.37820        -1.86949
H         -8.82644         1.95853        -1.98621
O         -6.52743        -0.20108         2.61943
H         -6.57993        -1.00007         3.18576
O          3.19446         4.06451        -2.35074
H          3.59853         3.44677        -3.00730
O          3.16923         2.26182         0.81107
H          2.42501         2.11398         1.44390
O          9.81448        -0.95165        -1.70629
H          9.44945        -0.37113        -2.41466
O         -6.25235         0.12744        -0.97391
H         -5.74363         0.76415        -1.52589
O          6.30629        -5.24113        -1.32207
H          5.85902        -6.09493        -1.53189
O          7.64803        -5.62171         2.12822
H          6.82767        -6.05368         2.46838
H         11.21132        -1.10188         2.17775
H         11.35202         1.33675         1.95279
H         10.45562         3.42275         1.11728
H          9.53035         5.55807         0.31729
H          8.34578         7.69937         0.16896
H          7.09740         9.92913         0.22350
H          4.99383        11.12795         0.35624
H          2.46717        11.14025         0.55965
H         -0.07582        11.10814         0.18493
H         -2.44218        10.78635        -0.70162
H         -4.76323        10.33155        -1.71860
H         -6.95589         9.63884        -0.98132
H         -8.53559         7.75426         0.21690
H         -9.77301         5.60288         0.00608
H        -11.00670         3.46253        -0.27705
H        -12.23615         1.20831        -0.51265
H        -12.20516        -1.24868        -0.49298
H        -10.85492        -3.34509        -0.67283
H         -9.51326        -5.45024        -0.86726
H         -8.01594        -7.34667        -1.48905
H         -7.14619        -9.86271        -1.05625
H         -5.00128       -11.03109        -1.26964
H         -2.41125       -10.98821        -0.86362
H          0.02512       -10.99131        -0.58046
H          2.57658       -11.01529        -0.24508
H          5.02045       -11.07804         0.01845
H          7.17723        -9.93854         0.08438
H          8.51386        -7.79178         0.24166
H          9.58835        -5.75509        -0.37557
H         10.25330        -3.19828         1.65875
