         349
 CSIRO Nanostructure Databank - Neutral Graphene Oxide Data Set
C          1.24156         3.67924         1.52328
C          0.01176         4.33016         1.39848
C          1.12873         6.31261         0.51939
C         -0.04990         5.63194         0.91880
C          1.09527         7.72305         0.19204
C         -0.13480         8.48369         0.09383
C          1.04480        10.61424        -0.45243
C         -0.17304         9.81239        -0.20214
C          0.95152        12.11987        -0.48162
C          0.34079        12.75876        -1.63990
C          0.84401        15.01750        -0.71422
C          0.34832        14.10247        -1.81109
C          1.26121        16.41589        -1.12874
C          0.34577        17.15185        -1.89466
C          1.65599        19.18207        -1.63100
C          0.52283        18.50937        -2.13322
C          1.75463        20.64897        -1.68220
C          0.77493        21.40604        -2.37035
C          1.64294        23.48786        -1.44347
C          0.71909        22.78017        -2.25156
C          1.55183        24.91702        -1.28452
C          0.41403        25.65788        -1.72188
C          1.46860        27.74895        -1.06049
C          0.36382        27.02679        -1.59374
C          1.45408        29.17606        -0.98545
C          3.67821         3.59662         1.40719
C          2.43810         4.26805         1.06696
C          3.54596         6.31217         0.05815
C          2.37318         5.59715         0.50263
C          3.53055         7.71713        -0.04264
C          2.31140         8.41666         0.03896
C          3.61153        10.53535         0.22611
C          2.34258         9.88116        -0.21503
C          3.63653        11.78211         0.87768
C          1.68341        12.91850         0.36545
C          2.98161        15.01124         0.61460
C          1.88125        14.32809         0.13239
C          3.41641        16.30199         0.15528
C          2.43006        17.06061        -0.63863
C          3.92252        19.10456        -0.55739
C          2.62395        18.43263        -0.93129
C          3.77704        20.59997        -0.24850
C          2.73709        21.33598        -0.93236
C          3.70955        23.47066        -0.08130
C          2.69091        22.76433        -0.79628
C          3.74663        24.87187        -0.14497
C          2.63785        25.60594        -0.69120
C          3.75408        27.75425        -0.14238
C          2.61111        27.03432        -0.61527
C          3.74580        29.17805        -0.15507
C          2.55765        29.86755        -0.55157
C          6.20414         3.58465         1.10707
C          4.86581         3.77640         0.70552
C          6.02405         6.27508        -0.32748
C          4.76049         5.65906        -0.33098
C          6.06212         7.67324        -0.22068
C          4.78672         8.44292        -0.49495
C          6.05298        10.46067         0.38009
C          4.82103         9.84827         0.04504
C          6.05532        11.79480         0.82949
C          4.85329        12.47092         1.07675
C          5.94371        14.70004         0.90945
C          4.88379        13.91895         1.28255
C          5.89235        16.17544         0.85366
C          4.65795        16.86594         0.51160
C          5.86859        19.06740         0.99130
C          4.59343        18.37237         0.59802
C          5.65221        20.39508         1.26984
C          4.68872        21.22776         0.57264
C          6.09040        23.45494         0.73644
C          4.71490        22.74467         0.80666
C          6.08833        24.88693         0.59559
C          4.92916        25.60109         0.28663
C          6.11013        27.79262         0.50695
C          4.93196        27.05107         0.24731
C          6.10488        29.21498         0.46398
C          4.92784        29.88977         0.18075
C          8.58290         3.62201         0.74015
C          7.34017         4.17588         0.46484
C          8.53260         6.24441        -0.32767
C          7.26763         5.40308        -0.48950
C          8.53149         7.61446        -0.15955
C          7.29167         8.37152        -0.06772
C          8.54446        10.46171         0.40336
C          7.30124         9.74826         0.21300
C          8.55660        11.80348         0.77500
C          7.30627        12.55045         1.17479
C          8.45203        14.80131         0.83047
C          7.22655        13.97083         0.54120
C          8.39656        16.17342         0.89445
C          7.11704        16.87855         0.95690
C          8.46986        19.16024         1.23199
C          7.13427        18.35103         1.23988
C          8.51707        20.63043         0.97280
C          7.49685        21.46869         1.34546
C          8.58404        23.50939         0.61609
C          7.33576        22.82774         0.89535
C          8.59860        24.91701         0.59827
C          7.34171        25.63175         1.01868
C          8.55088        27.76032         0.50621
C          7.37269        27.09404         0.65652
C          8.61847        29.24093         0.21686
C          7.38305        29.97462         0.77268
C         11.16180         3.48459         0.56911
C          9.83382         4.08871         0.13273
C         11.07462         6.28041        -0.38570
C          9.81347         5.52289        -0.38482
C         11.02299         7.65114        -0.31800
C          9.77769         8.36262        -0.09613
C         11.05494        10.40169         0.52194
C          9.77459         9.72403         0.20466
C         11.10514        11.87147         0.64834
C          9.81267        12.55994         0.90887
C         10.96276        14.79297         0.45822
C          9.74165        14.06549         0.89009
C         10.96153        16.24899         0.58097
C          9.63435        16.96756         0.46019
C         11.00340        19.13084         0.59274
C          9.75136        18.40263         0.96907
C         10.98066        20.57278         0.20645
C          9.67956        21.29903         0.31717
C         11.01246        23.44867         0.23152
C          9.76612        22.77617         0.39185
C         11.02214        24.87431         0.27380
C          9.80500        25.57754         0.40742
C         10.96925        27.60435         1.20731
C          9.86993        27.06864         0.27877
C         11.00029        29.11704         1.10185
C          9.91964        29.83472         0.73905
C         13.62306         3.54916         0.09919
C         12.38435         4.19557         0.01435
C         13.55560         6.21498        -0.70700
C         12.34156         5.54841        -0.40380
C         13.52336         7.69257        -0.88062
C         12.21290         8.47862        -0.72743
C         13.55874        10.53025         0.09539
C         12.33380         9.71645         0.15053
C         13.57580        11.88219         0.39602
C         12.29096        12.56339         0.56703
C         13.51846        14.81728         0.48661
C         12.25224        14.03717         0.36388
C         13.47761        16.24130         0.08767
C         12.17245        16.91235         0.07500
C         13.47549        19.14543         0.01653
C         12.18580        18.42166         0.00740
C         13.47555        20.57277         0.07830
C         12.27183        21.30867         0.14324
C         13.49691        23.44927        -0.14135
C         12.25905        22.72715         0.09883
C         13.53002        24.97971        -0.21622
C         12.27059        25.62741         0.33829
C         13.55233        27.62831         1.08977
C         12.28114        26.89835         0.84980
C         13.50611        29.10776         1.13266
C         12.24724        29.77023         1.63415
C         16.07348         3.40953         0.05197
C         14.84412         4.16303        -0.25520
C         16.03341         6.32115        -0.82574
C         14.80426         5.53540        -0.67831
C         16.07305         7.68952        -0.53153
C         14.80629         8.42785        -0.60516
C         16.11728        10.50661         0.12684
C         14.80494         9.77601         0.01494
C         16.06983        11.97315         0.18903
C         14.83487        12.60446         0.38452
C         16.02492        14.78358        -0.02351
C         14.81463        14.08014         0.50777
C         15.93255        16.22963        -0.38420
C         14.64375        16.95647        -0.16278
C         15.90016        19.08419        -0.52069
C         14.64538        18.38627        -0.16617
C         15.89849        20.56939        -0.63345
C         14.79579        21.31753         0.10822
C         15.92578        23.51676        -0.74734
C         14.68681        22.77350        -0.26458
C         16.08306        24.87540        -0.00965
C         14.78722        25.41765         0.58794
C         16.06519        27.73981         0.46669
C         14.87149        26.92658         0.85944
C         15.93040        29.15240         0.70154
C         14.67032        29.78964         1.03607
C         18.64392         3.15040        -0.31146
C         17.26755         3.59254        -0.57896
C         18.49969         6.28089        -0.75145
C         17.28198         5.70286        -1.08591
C         18.53752         7.69345        -0.55631
C         17.30711         8.40595        -0.47253
C         18.55348        10.53116        -0.33730
C         17.34783         9.81961        -0.28849
C         18.52728        11.98295        -0.18201
C         17.32378        12.66323         0.05394
C         18.53923        14.88208        -0.20604
C         17.34681        14.14755         0.35792
C         18.46743        16.25434        -0.40851
C         17.20852        16.98833        -0.39362
C         18.40893        19.07841         0.14605
C         17.18469        18.36032        -0.39857
C         18.34963        20.60975         0.04859
C         17.26146        21.24948        -0.80409
C         18.40517        23.44398        -0.66755
C         17.22473        22.75443        -0.64168
C         18.38482        24.91940        -1.06739
C         17.32815        25.69977        -0.22948
C         18.36549        28.12228        -0.33673
C         17.26219        27.21050        -0.06571
C         18.26246        29.48685         0.11464
C         17.03872        29.97587         0.60858
C         19.70926         3.98117        -0.41199
C         20.95357         6.22313        -0.79737
C         19.71883         5.49999        -0.31072
C         20.97413         7.58023        -0.83208
C         19.78612         8.39361        -0.58338
C         20.99406        10.59484        -0.56453
C         19.78926         9.81321        -0.51486
C         20.97591        11.96266        -0.48107
C         19.76842        12.72487        -0.31472
C         20.97031        14.90607        -0.62489
C         19.76899        14.14402        -0.35766
C         20.95186        16.25345        -0.78791
C         19.69837        17.01692        -0.73152
C         20.92450        19.26781        -0.10417
C         19.69269        18.51638        -0.46509
C         20.88121        20.56778         0.24228
C         19.62760        21.36771         0.14550
C         20.85948        23.44999        -0.41631
C         19.67336        22.77056        -0.37125
C         20.91251        24.81769        -0.85889
C         19.76521        25.49626        -1.10077
C         20.61105        28.80370        -1.18320
C         19.59107        27.86977        -1.04237
C         20.50617        30.08913        -0.62265
C         19.33009        30.42443         0.00556
O          4.70307         4.30997        -0.60813
O          3.67757        14.47757         1.71170
O         19.56685        18.02794        -1.81697
O         18.68613        21.25870         1.30297
O          9.80166         4.35562        -1.30464
O         19.84240        26.71167        -1.78206
O         17.12644        24.94445         1.01471
O          9.90288        13.36314         2.18165
O         17.25235         4.44865        -1.70058
O         15.87874        15.16396        -1.41500
O          7.84899        18.71979         2.47317
O         14.28300         8.29214        -1.98684
O         15.57885        19.81548        -1.82509
O         11.51134        14.34537        -0.87102
O         15.52482         9.81102         1.29581
O          2.45433        12.32423         1.38197
O         14.39560        27.17147         2.22596
O         10.18295        27.36845        -1.07427
O         14.24476        14.59565         1.75604
O         11.83037         9.61452         1.52042
O          6.48441        21.02985         2.20650
O          1.87599        10.15842        -1.58480
O         10.76555        18.72634         1.97991
O         10.12290        20.75650        -0.98198
O         11.93856        17.68416        -1.21997
O         15.26814        21.30887         1.50098
H         14.79625        22.01796         1.98996
O         17.42923        14.27272         1.80876
H         18.21355        13.77261         2.11667
O         15.64009        23.77016        -2.15513
H         16.46957        24.10347        -2.58557
O         17.96415        24.98353        -2.46873
H         18.39664        25.77284        -2.86821
O          3.68331        18.58859         1.73358
H          4.09983        18.20133         2.53264
O          4.71553         8.54992        -1.95185
H          4.69796         7.64284        -2.32459
O          4.25259        22.93839         2.17879
H          4.84070        22.40047         2.75452
O          7.22476         4.91479        -1.84946
H          8.09277         4.47177        -2.01946
O         18.45388        18.73089         1.55304
H         18.54165        19.57873         2.05503
O          8.61343        29.41353        -1.21851
H          9.25869        28.71425        -1.54710
O         19.72222         5.67196         1.15992
H         19.82283         6.63184         1.34039
O         -0.31696        15.21498         0.17825
H         -0.02665        15.79438         0.91462
O          4.80019        19.01856        -1.71150
H          4.35157        19.44649        -2.47055
O         14.64047        24.73269         1.85221
H         15.39226        25.01097         2.41973
O         12.23614        29.58395         3.07351
H         13.16324        29.56178         3.39078
O          7.25501        13.75879        -0.89893
H          7.34149        14.63253        -1.33699
O          7.33070        25.60496         2.48794
H          7.25878        24.66729         2.76674
O          7.31233        12.70080         2.61649
H          8.21782        13.01238         2.87070
O         13.63270        25.44062        -1.57248
H         14.22590        24.82072        -2.07149
O          7.34363        31.28969         0.22536
H          7.59242        31.19735        -0.72112
O         10.63609        27.27443         2.57447
H         11.16338        27.87738         3.14997
O         11.23870         3.48459         2.00622
H         11.46340         4.38762         2.31087
O         17.71365        21.03983        -2.16529
H         17.01699        20.50537        -2.62395
O         11.84548         8.98374        -2.04216
H         12.65761         8.95898        -2.60191
O          9.34100        17.11388        -0.97459
H         10.19309        17.34818        -1.43002
H          1.28187         2.67911         1.97731
H         -0.90728         3.82605         1.72797
H         -1.01883         6.14709         0.89929
H         -1.08920         7.96695         0.26717
H         -1.14230        10.33312        -0.20944
H         -0.07620        12.10582        -2.42014
H         -0.09594        14.54591        -2.71379
H         -0.56206        16.65496        -2.26403
H         -0.25414        19.05155        -2.68704
H          0.03359        20.90388        -3.00525
H         -0.05770        23.32664        -2.80245
H         -0.44964        25.13058        -2.14904
H         -0.52708        27.58005        -1.92468
H          0.55144        29.71460        -1.30903
H          3.67974         2.97249         2.31349
H          2.55023        30.96699        -0.52747
H          6.40103         2.90863         1.95469
H          4.92778        30.98958         0.15958
H          8.65159         2.79095         1.45886
H          7.47936        30.06710         1.88876
H         11.18236         2.40945         0.25286
H          9.98384        30.93629         0.73966
H         13.64857         2.51869         0.48414
H         12.26406        30.87214         1.40043
H         16.00232         2.67672         0.86976
H         14.68313        30.88283         1.16797
H         18.82570         2.07780        -0.12977
H         16.95228        31.04079         0.86786
H         20.70436         3.53117        -0.25479
H         21.86991         5.65306        -1.01318
H         21.90905         8.09181        -1.10543
H         21.96060        10.08465        -0.67884
H         21.93635        12.49228        -0.54053
H         21.93165        14.38208        -0.71168
H         21.88138        16.79016        -1.02473
H         21.88704        18.73354        -0.09228
H         21.81256        21.07465         0.53751
H         21.80345        22.95735        -0.15014
H         21.88362        25.30335        -1.01823
H         21.50253        28.51759        -1.75578
H         21.32833        30.80960        -0.72166
H         19.17538        31.43518         0.40754
