         630
 CSIRO Nanostructure Databank - Neutral Graphene Oxide Data Set
C         23.30018        27.12255         0.34943
C         23.32459        28.49350         0.72319
C         23.30266        31.42305         1.07656
C         23.29868        32.81465         1.19773
C         23.31369        35.72287         1.56704
C         23.30311        37.11074         1.63894
C         23.41936        39.97343         2.30846
C         23.48163        41.29512         2.57850
C         23.34650        44.22369         2.54319
C         23.30610        45.59303         2.57893
C         25.53454        24.52763        -1.07852
C         24.41722        25.11767        -0.56403
C         25.78272        27.11303         0.16461
C         24.44304        26.46072        -0.05086
C         25.70963        28.62258         0.19560
C         24.48327        29.26548         0.59788
C         25.67980        31.45774         0.56609
C         24.47314        30.71398         0.75950
C         25.66681        32.88593         0.66118
C         24.45827        33.57405         0.99408
C         25.63721        35.78256         0.87243
C         24.46941        35.03372         1.14728
C         25.64940        37.19292         1.00732
C         24.45623        37.85937         1.37402
C         25.70546        40.06066         1.32473
C         24.36611        39.36404         1.30655
C         25.73492        41.44934         1.57943
C         24.56997        42.11422         2.08393
C         25.71787        44.28537         1.85339
C         24.54267        43.52673         2.17689
C         25.67944        45.71284         1.93763
C         24.46970        46.36565         2.28740
C         25.56564        48.52977         2.14547
C         24.42988        47.78733         2.35169
C         27.97569        23.23291        -2.01655
C         27.96352        24.63422        -1.79183
C         26.78810        25.25692        -1.21844
C         28.00391        27.36608        -1.03267
C         26.86188        26.56233        -0.73518
C         28.03163        28.73340        -0.62770
C         26.86396        29.36171        -0.03269
C         28.08715        31.52494         0.07052
C         26.88562        30.78825         0.19991
C         28.07032        32.93959         0.24555
C         26.87000        33.61928         0.44844
C         28.11341        35.84128         0.36566
C         26.80379        35.10793         0.20061
C         28.09334        37.26630         0.50295
C         26.87895        37.94994         0.77846
C         28.12139        40.10220         0.82694
C         26.88743        39.36775         0.95607
C         28.12286        41.53728         0.96261
C         26.93721        42.20514         1.34001
C         28.09694        44.39532         1.16625
C         26.91888        43.62898         1.47409
C         28.07229        45.83220         1.31924
C         26.86583        46.48095         1.69838
C         28.02984        48.64898         1.80717
C         26.81816        47.90553         1.85338
C         28.04664        50.07525         2.04904
C         30.40191        23.25547        -2.24423
C         29.16295        22.56613        -2.21024
C         30.39066        24.68514        -2.33590
C         29.15305        25.38296        -2.05351
C         29.98801        27.74237        -2.35606
C         29.06671        26.81697        -1.82642
C         30.14065        29.04471        -1.83129
C         29.15891        29.53083        -0.91636
C         30.47935        31.57604        -0.64316
C         29.27420        30.88165        -0.45420
C         30.60912        32.94596        -0.13743
C         29.34549        33.68286         0.26997
C         30.55645        35.87904         0.10808
C         29.32178        35.16522         0.23499
C         30.55819        37.28066         0.14789
C         29.33012        37.99430         0.41769
C         30.62121        40.15290         0.65282
C         29.31990        39.40068         0.56660
C         30.48735        41.61790         0.30525
C         29.30012        42.31216         0.63581
C         30.37263        44.57956         0.15198
C         29.25856        43.74786         0.70475
C         30.46552        46.01759         0.61922
C         29.27487        46.59373         1.16826
C         30.49455        48.68053         1.73840
C         29.26261        47.98052         1.55364
C         30.48003        50.03696         2.32355
C         29.19608        50.75100         2.28875
C         32.75860        20.40403        -1.47468
C         31.60930        21.08961        -1.77677
C         32.88575        23.11802        -2.13078
C         31.63278        22.48864        -2.08108
C         32.91405        24.52778        -2.54072
C         31.67520        25.33380        -2.56538
C         33.07617        27.41065        -2.69600
C         31.86083        26.66729        -2.93078
C         33.12210        28.83405        -2.65729
C         31.25149        29.87505        -2.15065
C         32.87598        31.65546        -1.44497
C         31.56374        31.02228        -1.40921
C         32.92638        33.04418        -1.03285
C         31.79696        33.71167        -0.52535
C         32.98777        35.95469        -0.70072
C         31.81837        35.13550        -0.15141
C         32.85100        37.40545        -0.81377
C         31.75519        38.04515        -0.20543
C         32.90696        40.21715        -0.37146
C         31.75077        39.46152        -0.06466
C         32.85268        41.65058        -0.33382
C         31.62689        42.31133        -0.15787
C         32.81899        44.41907        -0.73381
C         31.53413        43.76348        -0.44876
C         32.85616        46.47352        -0.03323
C         31.63636        46.82212         0.64798
C         32.97956        48.76201         1.49840
C         31.69707        48.07584         1.35195
C         33.02292        50.07587         1.93685
C         31.81721        50.79432         2.38563
C         33.01177        52.94896         2.06334
C         31.86920        52.26680         2.35691
C         35.12170        19.08350        -0.30188
C         35.18441        20.34007        -0.96777
C         34.04231        21.03334        -1.45374
C         35.34524        23.12968        -1.79415
C         34.10942        22.42617        -1.84669
C         35.42799        24.54492        -1.93829
C         34.24841        25.27091        -2.41496
C         35.41848        27.42413        -1.93868
C         34.24215        26.72467        -2.29627
C         35.40335        28.84649        -1.83771
C         34.17838        29.55874        -2.07659
C         35.35375        31.66919        -1.59530
C         34.09566        30.98031        -1.75159
C         35.35621        33.10029        -1.50308
C         34.14678        33.76406        -1.25374
C         35.35241        35.97880        -1.72081
C         34.06999        35.21931        -1.40887
C         35.33669        37.46930        -1.60852
C         34.00790        38.19032        -1.26875
C         35.34074        40.26773        -0.92923
C         34.08922        39.58547        -0.85201
C         35.35293        41.66772        -0.68127
C         34.05024        42.37715        -0.88127
C         35.31045        44.61503        -0.48411
C         34.04193        43.84714        -0.54052
C         35.33910        46.10350        -0.08320
C         34.12502        46.84323         0.35972
C         35.45186        48.68692         1.26777
C         34.22491        48.07149         1.13396
C         35.57672        50.08915         1.70450
C         34.29329        50.83051         2.02567
C         35.48492        52.98467         1.61864
C         34.28281        52.29600         1.88407
C         35.53111        54.41964         1.59075
C         37.53650        19.09764         0.22596
C         36.23916        18.48064         0.23528
C         37.66144        20.38194        -0.34262
C         36.51273        20.95410        -1.07383
C         37.73966        23.23123        -0.94131
C         36.59068        22.40626        -1.50643
C         37.90621        24.49229        -1.78932
C         36.61922        25.27019        -1.77851
C         37.85464        27.40351        -1.51087
C         36.64445        26.69501        -1.75165
C         37.85036        28.82534        -1.45687
C         36.62191        29.54574        -1.59660
C         37.84000        31.69384        -1.44515
C         36.60241        30.97682        -1.56590
C         37.84567        33.11949        -1.46233
C         36.60754        33.83433        -1.54492
C         37.82906        35.98740        -1.42801
C         36.61592        35.24603        -1.56707
C         37.79437        37.41729        -1.31316
C         36.59945        38.15593        -1.31779
C         37.80139        40.27484        -0.80257
C         36.58079        39.56778        -1.07633
C         37.76332        41.64255        -0.43306
C         36.54490        42.35381        -0.44771
C         37.83444        44.49972        -0.08556
C         36.50600        43.79189         0.02242
C         37.81286        45.93056         0.19898
C         36.63857        46.61588         0.40547
C         37.89676        48.75934         0.65879
C         36.73647        47.92286         1.14705
C         37.88947        50.16252         0.76044
C         36.73803        50.87110         1.24725
C         37.88954        53.01976         0.90378
C         36.71006        52.27482         1.28524
C         37.87505        54.43486         0.87701
C         36.66243        55.10666         1.24289
C         39.78196        16.53151         1.87482
C         38.65074        17.14816         1.36838
C         39.97656        19.03635         0.53110
C         38.71687        18.42266         0.71004
C         40.08200        20.37194         0.07061
C         38.90842        21.07352        -0.33295
C         40.23350        23.10139        -0.75986
C         39.01196        22.44656        -0.75027
C         40.39732        24.48952        -1.37420
C         39.11942        25.28837        -1.40229
C         40.32780        27.40594        -1.07334
C         39.09836        26.66324        -1.32769
C         40.31224        28.83793        -1.09989
C         39.08319        29.55233        -1.28847
C         40.31381        31.70312        -1.19964
C         39.07779        30.97645        -1.31221
C         40.32480        33.13105        -1.25394
C         39.07882        33.84941        -1.38322
C         40.32077        35.99893        -1.28095
C         39.06861        35.26569        -1.37290
C         40.29919        37.37104        -1.12804
C         39.07744        38.19426        -1.43001
C         40.25150        40.25889        -0.52191
C         39.05186        39.58136        -0.82187
C         40.28813        41.61814        -0.15511
C         38.97905        42.29819         0.16875
C         40.27748        44.47597         0.44285
C         39.00053        43.79808        -0.00323
C         40.28085        45.94592         0.14673
C         39.08257        46.63337         0.25719
C         40.25697        48.77272        -0.04189
C         39.07188        48.07040         0.27322
C         40.24116        50.19840         0.00959
C         39.07509        50.89580         0.42784
C         40.28977        53.02735         0.26054
C         39.08572        52.31704         0.52808
C         40.28164        54.46800         0.26478
C         39.05786        55.16755         0.49032
C         40.16911        57.26848        -0.09995
C         39.04492        56.58007         0.30581
C         42.23975        16.48373         2.18392
C         41.07165        17.07024         1.66568
C         42.48222        19.01466         0.91156
C         41.22370        18.21448         0.70076
C         42.54407        20.35992         0.47106
C         41.35381        21.04524         0.04093
C         42.66554        23.10946        -0.28352
C         41.41832        22.40334        -0.35118
C         42.67302        24.55648        -0.40369
C         41.55296        25.25770        -0.78868
C         42.73609        27.43680        -0.56198
C         41.52115        26.70581        -0.79829
C         42.75262        28.85635        -0.69193
C         41.53281        29.56186        -0.94115
C         42.77895        31.69909        -0.92079
C         41.54023        30.99028        -1.02175
C         42.79190        33.12593        -1.02583
C         41.56208        33.83923        -1.17616
C         42.81562        35.96391        -1.27923
C         41.58815        35.27526        -1.25478
C         42.83510        37.43855        -1.42501
C         41.54329        38.15910        -1.17007
C         42.79454        40.18059        -0.19306
C         41.48192        39.41082        -0.30192
C         42.78954        41.66197        -0.14634
C         41.53380        42.34029        -0.04845
C         42.75409        44.48568        -0.00209
C         41.54319        43.76035         0.04661
C         42.73834        45.93873        -0.16811
C         41.49898        46.64030        -0.11362
C         42.64179        48.72624        -0.74637
C         41.47053        48.05023        -0.30929
C         42.55785        50.19584        -0.93046
C         41.42275        50.91954        -0.30577
C         42.75676        52.99568        -0.22118
C         41.45729        52.30362        -0.13647
C         42.76314        54.53570        -0.11989
C         41.45842        55.20447        -0.05240
C         42.60530        57.29111        -0.66977
C         41.40839        56.59402        -0.27862
C         43.49001        17.06706         1.99483
C         44.92488        19.01621         1.30182
C         43.63514        18.35472         1.39169
C         45.00585        20.35466         0.81881
C         43.79697        21.04126         0.44515
C         45.14819        23.04786        -0.14485
C         43.83857        22.39774         0.03600
C         45.15604        24.56947        -0.18729
C         43.86999        25.28853         0.14882
C         45.13962        27.44621        -0.07305
C         43.93211        26.75144        -0.22338
C         45.19231        28.85707        -0.27420
C         43.98625        29.56364        -0.55485
C         45.23822        31.69319        -0.63746
C         44.00076        30.98910        -0.70697
C         45.24986        33.11807        -0.75567
C         44.03006        33.83530        -0.93632
C         45.27632        35.96727        -0.85185
C         44.05053        35.26833        -1.03958
C         45.33672        37.41085        -0.88126
C         44.15131        38.21155        -1.35032
C         45.32152        40.30825        -0.59368
C         44.07644        39.50636        -0.54723
C         45.29686        41.69130        -0.30254
C         44.00958        42.37499        -0.14413
C         45.24036        44.55285         0.15383
C         43.99219        43.79146        -0.01546
C         45.22892        46.02353        -0.26740
C         43.90713        46.64402        -0.52282
C         45.06052        48.66299        -1.46258
C         43.84627        48.01244        -0.89417
C         45.05803        50.16961        -1.59944
C         43.81405        50.95877        -1.27153
C         45.11209        53.07559        -0.92379
C         43.92593        52.36263        -0.82445
C         45.14424        54.51060        -0.79476
C         43.94627        55.24148        -0.62056
C         43.80531        56.64691        -0.85126
C         47.35569        18.96455         1.49603
C         46.12184        18.34179         1.63055
C         47.45695        20.29793         1.06930
C         46.28423        21.00315         0.71921
C         47.60220        23.07387         0.25100
C         46.38007        22.36394         0.24916
C         47.59017        24.52250         0.12671
C         46.41292        25.24521         0.10967
C         47.69386        27.45564         0.25901
C         46.37250        26.70835         0.30019
C         47.67920        28.88552        -0.07319
C         46.45059        29.56769        -0.24345
C         47.71424        31.67774        -0.46038
C         46.46542        30.98120        -0.45410
C         47.72229        33.10876        -0.54832
C         46.49114        33.82049        -0.66709
C         47.72964        35.94230        -0.49743
C         46.49672        35.24640        -0.65817
C         47.72165        37.40920        -0.15561
C         46.49302        38.11730        -0.64480
C         47.75558        40.27008        -0.51789
C         46.52366        39.57811        -0.64090
C         47.73919        41.66958        -0.29750
C         46.52831        42.38180        -0.18193
C         47.76517        44.61132        -0.19705
C         46.56617        43.81740         0.32065
C         47.71276        45.94735        -0.66061
C         46.46557        46.63240        -0.76811
C         47.68562        48.68120        -1.76533
C         46.37996        47.91869        -1.47629
C         47.66653        50.19949        -1.92887
C         46.36218        50.93034        -1.69547
C         47.68080        53.06398        -1.04745
C         46.38527        52.31580        -1.10217
C         47.59502        54.53818        -1.07391
C         46.41217        55.18972        -0.97892
C         49.82145        20.51975         1.92662
C         48.82448        20.91297         0.86051
C         50.01908        23.10943         0.83007
C         48.81424        22.41273         0.65570
C         50.16052        24.47518         0.30677
C         48.86990        25.24321         0.00256
C         50.16703        27.36783        -0.06346
C         48.93482        26.69786         0.05669
C         50.14899        28.79930        -0.19491
C         48.92915        29.54332        -0.20662
C         50.18867        31.68322        -0.38089
C         48.94424        30.97012        -0.37096
C         50.19279        33.10337        -0.43635
C         48.95422        33.81693        -0.50755
C         50.20004        35.97801        -0.49633
C         48.94668        35.24729        -0.48468
C         50.19455        37.37424        -0.60545
C         48.99333        38.13128        -0.52293
C         50.26409        40.25186        -0.60735
C         49.00353        39.52594        -0.57252
C         50.27254        41.67286        -0.46824
C         49.03002        42.36733        -0.10295
C         50.29397        44.56092        -0.48423
C         49.04648        43.89974        -0.06676
C         50.25913        46.06693        -0.44338
C         48.95274        46.68997        -0.93340
C         50.17575        48.81365        -1.32969
C         48.94320        48.02764        -1.30551
C         50.21256        50.18950        -1.44227
C         49.01152        50.96934        -1.94122
C         50.14683        53.03123        -1.18691
C         48.95407        52.38459        -1.38861
C         50.92316        21.26006         2.17521
C         52.34823        23.26453         1.64782
C         51.13172        22.54655         1.53689
C         52.46407        24.60544         1.14788
C         51.37077        25.25957         0.58013
C         52.62995        27.35497         0.35104
C         51.41240        26.64863         0.18794
C         52.73160        28.74884        -0.09379
C         51.39509        29.51576        -0.41835
C         52.65815        31.66408        -0.22607
C         51.42881        30.98001        -0.33110
C         52.66495        33.09887        -0.24872
C         51.43542        33.80781        -0.39520
C         52.66844        35.91664        -0.31516
C         51.44538        35.23493        -0.44478
C         52.63463        37.38815        -0.23301
C         51.48827        38.07933        -0.92541
C         52.71817        40.26849        -0.56265
C         51.47971        39.56310        -0.66651
C         52.72153        41.69614        -0.60278
C         51.47076        42.39525        -0.57821
C         52.71131        44.49045        -1.18243
C         51.44897        43.84607        -0.65866
C         52.70839        45.99227        -1.06090
C         51.50564        46.66991        -1.03644
C         52.80049        48.85285        -1.37564
C         51.44845        48.07028        -1.40207
C         52.71408        50.28241        -1.10487
C         51.45059        50.94782        -1.30509
C         51.38524        52.34278        -1.24772
C         54.64690        23.40217         2.53794
C         53.49128        22.69990         2.32259
C         54.84011        24.73584         2.04976
C         53.82795        25.24568         1.05439
C         54.94217        27.48980         1.19193
C         53.77941        26.74778         0.93166
C         55.00751        28.89679         0.86700
C         53.88686        29.55011         0.27734
C         55.09894        31.68236         0.23556
C         53.89455        30.95752         0.05385
C         55.12870        33.10702         0.08614
C         53.89235        33.81367        -0.10373
C         55.13521        35.96151         0.02948
C         53.89563        35.23509        -0.12233
C         55.17018        37.37426        -0.00408
C         53.91572        38.13376        -0.07118
C         55.17348        40.25230        -0.27969
C         53.94723        39.57121        -0.38292
C         55.18658        41.68461        -0.34912
C         53.96159        42.40157        -0.53266
C         55.16507        44.54597        -0.61967
C         53.97849        43.82676        -0.69157
C         55.18746        45.96866        -0.80391
C         53.97157        46.69278        -1.04275
C         55.17558        48.82019        -0.64162
C         54.00232        48.10422        -1.01238
C         55.07578        50.22569        -0.46295
C         53.87648        50.91582        -0.63203
C         57.13587        24.91873         2.98606
C         55.97704        25.48911         2.31673
C         57.22202        27.61294         2.10370
C         56.07129        26.87388         1.86201
C         57.37017        28.94524         1.57022
C         56.21811        29.60371         1.02295
C         57.53029        31.64749         0.66024
C         56.31045        30.98846         0.62288
C         57.65266        33.07201         0.18719
C         56.34385        33.81869         0.18773
C         57.58834        35.95759         0.37166
C         56.36239        35.23670         0.17673
C         57.60473        37.37696         0.30237
C         56.38747        38.09269         0.06162
C         57.61416        40.23962         0.09606
C         56.39516        39.52829        -0.03821
C         57.62148        41.67564        -0.02008
C         56.41629        42.37376        -0.20308
C         57.69034        44.43983        -0.75114
C         56.42490        43.88365        -0.09828
C         57.69705        45.96565        -0.73909
C         56.41064        46.69205        -0.67148
C         57.62893        48.76441        -0.09778
C         56.41280        48.09342        -0.50462
C         58.25593        25.62906         3.23432
C         59.67355        27.60194         2.57392
C         58.31951        27.11189         3.01112
C         59.79181        28.78173         1.91360
C         58.63446        29.54637         1.52339
C         59.83687        31.74689         1.58031
C         58.82163        30.89311         0.86669
C         59.80969        33.10344         1.51906
C         58.76408        33.84134         0.87011
C         59.95469        36.01334         1.06531
C         58.78018        35.24175         0.76694
C         59.98175        37.37260         0.91494
C         58.81562        38.11244         0.52892
C         60.01849        40.29627         0.61024
C         58.82279        39.52976         0.40635
C         60.04120        41.65723         0.48444
C         58.87170        42.41052         0.12336
C         60.08415        44.57678         0.17728
C         58.91661        43.79210        -0.10821
C         60.12048        45.93577         0.09158
C         58.95967        46.71597        -0.36930
C         58.81150        48.11439         0.05078
O         32.06271        29.54327        -3.24393
O         52.25345        28.95972        -1.45740
O         45.19401        23.80563        -1.41573
O         52.98928        37.88024         1.08809
O         46.88903        50.75062        -3.04294
O         32.93928        35.52312         0.71666
O         43.05911        53.68761         1.03584
O         34.50986        38.05328        -2.65080
O         31.20864        50.20050         3.58798
O         42.78292        50.72999        -2.28981
O         33.76326        24.77445        -3.71367
O         49.17299        43.09831         1.16025
O         30.45878        44.27066        -1.29504
O         49.69795        24.65460        -1.06730
O         52.18594        48.40098        -2.61716
O         32.71044        45.72710        -1.19967
O         35.18778        50.34298         3.10254
O         58.58263        46.48877        -1.78795
O         45.20691        45.61326         1.16946
O         47.12837        52.38601         0.17287
O         34.42882        35.56588        -2.77933
O         36.91646        21.36141        -2.44825
O         35.49035        45.64269        -1.48579
O         47.01542        47.92407        -2.80396
O         30.25770        33.13918         1.28950
O         43.61409        39.49379         0.84681
O         42.07018        38.06628        -2.53777
O         30.76849        27.37747        -3.45467
O         47.00414        27.15278         1.54869
O         44.81664        49.31104        -2.74257
O         33.88466        42.33915        -2.35075
H         33.05619        42.81293        -2.58054
O         58.07029        27.73119         4.33122
H         57.18310        27.43374         4.62523
O         50.32784        46.41452         0.98813
H         49.70893        45.82004         1.46604
O         46.74695        43.67484         1.76105
H         46.42185        44.51073         2.16767
O         41.42008        17.55975        -0.62616
H         42.22200        16.99901        -0.54844
O         41.20234        38.83201         1.01497
H         42.03807        38.87203         1.53817
O         37.32351        23.68096         0.38044
H         37.42652        22.93489         1.00762
O         54.35042        24.78325        -0.25436
H         53.71994        25.08775        -0.94256
O         44.50398        38.63329        -2.69753
H         43.66526        38.68263        -3.21452
O         26.52080        35.21546        -1.24973
H         25.60201        34.90247        -1.39332
O         40.25596        44.38036         1.91249
H         39.96054        43.45990         2.13400
O         38.78772        42.11177         1.63666
H         37.89299        42.48361         1.84414
O         43.77963        25.22749         1.61082
H         43.03352        25.79785         1.89173
O         49.32006        20.32697        -0.39669
H         50.13623        20.81210        -0.64358
O         40.76459        24.23937        -2.77141
H         39.96094        23.86043        -3.20785
O         23.78466        39.64381        -0.02277
H         23.74320        40.61941        -0.11873
O         38.09916        24.03408        -3.16896
H         37.89613        24.78094        -3.77091
O         47.66870        37.46523         1.32102
H         46.80553        37.09214         1.59979
O         30.99439        40.13774         2.09004
H         31.10395        39.19789         2.35089
O         58.07281        32.97986        -1.23034
H         58.79218        32.29977        -1.25452
O         26.19306        26.71767         1.53836
H         25.48986        27.03395         2.14526
O         59.37976        30.63334        -0.48981
H         58.80243        29.96256        -0.91467
O         37.07083        47.54356         2.53666
H         36.98960        48.35049         3.09082
O         36.29369        43.67173         1.48219
H         36.48262        44.54860         1.88636
O         39.20894        38.47009        -2.88440
H         39.33995        37.61210        -3.34235
O         57.67506        44.02802        -2.13751
H         58.26876        44.64887        -2.61841
O         51.73930        37.89796        -2.35977
H         50.99690        38.30902        -2.85066
O         49.35249        51.14803        -3.35419
H         48.50359        51.23149        -3.84823
O         52.68026        44.23529        -2.63236
H         53.45791        44.68290        -3.02904
O         56.52062        44.22273         1.31854
H         55.74535        43.83432         1.77567
H         22.33124        26.60140         0.31983
H         22.37559        28.96095         1.01730
H         22.35741        30.88723         1.23656
H         22.35020        33.30555         1.45258
H         22.39015        35.17685         1.79831
H         22.36168        37.61607         1.89206
H         22.60252        39.37175         2.73038
H         22.73030        41.74984         3.23972
H         22.43547        43.65388         2.76954
H         22.37475        46.11450         2.84279
H         25.45384        23.50659        -1.47289
H         23.45834        24.57713        -0.56859
H         25.50438        49.62247         2.22849
H         23.47935        48.28411         2.59356
H         27.05113        22.64722        -1.94327
H         27.09705        50.62589         2.07666
H         29.13782        21.47277        -2.29670
H         29.16663        51.81935         2.54253
H         32.68272        19.33318        -1.24234
H         30.65999        20.53970        -1.76283
H         32.96417        54.04599         2.01947
H         30.95127        52.82753         2.58111
H         34.15804        18.56274        -0.21516
H         34.63698        54.99199         1.87157
H         36.12052        17.49261         0.69996
H         36.63361        56.20432         1.25815
H         39.67981        15.60649         2.46239
H         37.67328        16.67916         1.54335
H         40.11968        58.35373        -0.26868
H         38.11259        57.14083         0.45524
H         42.16053        15.55460         2.76829
H         42.53897        58.37382        -0.85026
H         44.36955        16.55808         2.41033
H         44.67356        57.23007        -1.18858
H         48.26374        18.38694         1.71529
H         46.09463        17.29760         1.96861
H         48.51511        55.11839        -1.22710
H         46.41461        56.28838        -1.00561
H         49.70050        19.55470         2.43913
H         50.16683        54.09290        -0.90257
H         51.65803        20.89827         2.90804
H         52.30585        52.93028        -1.13469
H         55.44003        22.92486         3.13040
H         53.42332        21.67773         2.71809
H         55.95723        50.79967        -0.14855
H         53.86409        51.99197        -0.41034
H         57.12424        23.84699         3.23015
H         57.57411        49.82474         0.18438
H         59.12253        25.14376         3.70835
H         60.56553        27.02994         2.86861
H         60.78797        29.16447         1.64660
H         60.64191        31.24695         2.13784
H         60.59916        33.66359         2.04251
H         60.87593        35.49633         1.36638
H         60.92268        37.90203         1.11488
H         60.95545        39.78159         0.86090
H         60.99779        42.17666         0.62908
H         60.97765        44.06715         0.56547
H         61.01888        46.48304         0.41290
H         59.68075        48.62975         0.48541
