         282
 CSIRO Nanostructure Databank - Neutral Graphene Oxide Data Set
C        -10.27131         0.97696         2.39226
C         -9.10064         1.85707         1.97473
C         -8.10851         0.83249         1.19885
C         -7.03552         1.51823         0.32149
C         -5.61289         1.00536         0.38342
C         -4.51590         1.72423        -0.44968
C         -3.50042         0.74066        -1.06398
C         -2.44629         1.36730        -1.91635
C         -1.11744         0.67569        -2.07123
C          0.15883         1.47505        -1.99966
C          1.57106         0.84600        -2.01665
C          2.58570         1.38184        -1.01523
C          3.81190         0.77314        -0.95759
C          5.03947         1.51918        -0.51734
C          6.16083         0.74568         0.17049
C          7.50440         1.49474         0.21629
C          8.79038         0.70549         0.51116
C          9.80009         1.46090         1.36598
C         11.00918         0.65838         1.60008
C         -9.38030         3.00333         1.04959
C         -8.18646         3.81885         0.63129
C         -7.25898         2.89977        -0.22009
C         -6.20472         3.58177        -1.05631
C         -5.03878         2.69714        -1.53735
C         -3.83074         3.56400        -2.01671
C         -2.52151         2.85894        -2.18764
C         -1.21043         3.63407        -2.08190
C         -0.13636         2.82382        -1.35109
C          1.08946         3.53601        -0.74421
C          2.35460         2.74262        -0.42897
C          3.53223         3.44776         0.27780
C          4.93463         2.94478        -0.07555
C          6.10342         3.59234         0.71104
C          7.46957         2.96253         0.45071
C          8.67866         3.72611         1.03981
C          9.70367         2.78327         1.65330
C         -8.43849         5.17201        -0.01799
C         -7.46216         5.80945        -0.69694
C         -6.30051         5.05706        -1.26471
C         -5.08327         5.83366        -1.78100
C         -3.79333         5.01603        -1.56356
C         -2.48524         5.74024        -1.40643
C         -1.19559         5.11653        -1.87048
C          0.14796         5.83976        -1.59600
C          1.11525         5.03668        -0.71051
C          2.19942         5.68497        -0.20570
C          3.50611         4.97526         0.07433
C          4.18544         5.72086         1.24196
C          6.42788         5.08872         0.37552
C          7.19302         5.72282         1.51509
C          8.25426         4.89025         1.91902
C         -7.54452         7.25119        -1.16842
C         -6.20110         7.92832        -0.97265
C         -5.05216         7.25256        -1.24716
C         -3.76115         7.95931        -1.02066
C         -2.47725         7.21532        -1.09078
C         -1.19052         7.95391        -1.08563
C         -0.00905         7.27919        -1.12025
C          1.25529         7.99919        -0.84483
C          2.40992         7.16255        -0.34916
C          3.52340         7.85101         0.36347
C          4.50408         7.13771         1.00524
C          5.58269         7.77603         1.85937
C          6.88698         6.99504         1.99939
C         -6.13188         9.32608        -0.53895
C         -4.99675        10.05374        -0.61518
C         -3.74315         9.46020        -1.22398
C         -2.44403        10.06485        -0.74171
C         -1.25001         9.38726        -0.75254
C         -0.00991        10.06129        -0.40881
C          1.20363         9.41662        -0.42049
C          2.44322        10.03708        -0.00559
C          3.55949         9.30556         0.34645
C          4.79903         9.91853         0.81742
C          5.76334         9.22258         1.45904
C        -10.09359        -0.28966         2.81569
C         -8.74709        -0.93750         2.90087
C         -7.64049        -0.25248         2.16051
C         -6.39610        -1.03218         1.82553
C         -5.32568        -0.32673         1.03357
C         -4.05899        -1.10088         0.68855
C         -3.12803        -0.52170        -0.33832
C         -2.04470        -1.35214        -0.96338
C         -1.05573        -0.75057        -1.70183
C          0.20430        -1.45804        -2.01854
C          1.50882        -0.69906        -2.08590
C          2.83130        -1.43246        -1.93319
C          4.02131        -0.62342        -1.48234
C          5.29253        -1.36326        -1.11108
C          6.39489        -0.65410        -0.38872
C          7.45745        -1.45570         0.32151
C          8.53858        -0.72193         1.03239
C          9.72102        -1.45978         1.65636
C         11.01357        -0.69065         1.53048
C         -8.63126        -2.42824         3.28259
C         -7.62591        -3.21440         2.43804
C         -6.37150        -2.50525         2.04511
C         -5.23312        -3.30495         1.48748
C         -3.91274        -2.61150         1.04748
C         -3.29548        -3.39830        -0.16146
C         -2.00471        -2.78658        -0.68278
C         -0.95082        -3.55672        -1.09954
C          0.22524        -2.94561        -1.78003
C          1.55195        -3.66462        -1.76968
C          2.84304        -2.91845        -1.69343
C          3.97030        -3.57378        -1.28880
C          5.34769        -2.89819        -1.32415
C          6.31357        -3.58444        -0.30570
C          7.69296        -2.87085        -0.18188
C          8.66189        -3.59139         0.74444
C          9.67771        -2.94920         1.36210
C         -7.83510        -4.51365         2.13090
C         -6.95411        -5.29421         1.17352
C         -5.52304        -4.72819         1.16593
C         -4.54006        -5.56245         0.35213
C         -3.14751        -4.92701         0.18026
C         -2.30885        -5.68927        -0.85869
C         -0.94901        -5.03737        -0.94731
C          0.26660        -5.81582        -1.31149
C          1.56534        -5.11783        -1.49099
C          2.72922        -5.80866        -1.39015
C          3.89948        -5.03214        -0.81894
C          5.20031        -5.81486        -0.86840
C          6.47344        -5.07817        -0.61472
C          7.70352        -5.82922        -0.09037
C          8.42127        -5.05842         1.02744
C         -6.94805        -6.82015         1.34893
C         -5.81571        -7.57018         1.23341
C         -4.54508        -6.79421         1.25909
C         -3.35532        -8.25184        -0.73081
C         -2.37425        -7.16681        -1.14754
C         -1.09472        -7.88423        -1.36781
C          0.14237        -7.21812        -1.87775
C          1.42129        -8.04051        -1.62641
C          2.73383        -7.30394        -1.46711
C          3.95858        -8.08874        -0.98462
C          5.09428        -7.23348        -0.48627
C          6.17543        -7.88298         0.15472
C          7.37751        -7.22653         0.39085
C         -5.66606        -9.02533         1.30199
C         -4.50524        -9.68128         1.04665
C         -3.21727        -9.06630         0.54696
C         -2.59560        -9.58869        -0.74203
C         -1.16923        -9.19933        -1.01838
C          0.05139        -9.97487        -0.85929
C          1.28085        -9.42287        -1.07564
C          2.55199       -10.15720        -0.67517
C          3.54515        -9.18745         0.01577
C          4.77968        -9.88574         0.54042
C          5.97579        -9.27103         0.60013
O         -2.88271        -0.33318         1.09504
O          4.52855        -8.80502        -2.11289
H          4.62229        -8.17662        -2.85999
O          4.25219         5.28400         2.39193
O         -3.51955         0.57305        -2.50223
O          7.33848        -1.19265         1.76987
O         -2.24023        -8.77817         1.51362
H         -2.58400        -8.11184         2.15475
O         -4.96394        -4.38682         2.45849
O         -3.13210         7.50693         0.21359
O          2.12600         1.27334        -3.28007
H          1.61997         0.80925        -3.98549
O          2.32419        -7.85452        -2.77263
O         -3.79088        -6.89440         2.21813
O         -5.24273         5.96446        -3.21740
H         -5.62633         5.11763        -3.54653
O         -3.33696         3.25128        -3.33457
O          0.71799        -3.58031        -2.99830
O         -5.11689         0.93561         1.75615
O          1.25949         2.85586         0.54730
O          2.83608        -8.59808         1.12642
H          3.46851        -8.06957         1.65716
O         -7.78067        -0.06298         3.59688
O         -5.83336        -1.59252         3.05922
O          9.44387         0.48418        -0.71456
O          7.69066         2.45171        -0.87120
O          2.25379       -11.22695         0.21653
H          1.94012       -10.82448         1.05420
O         -0.07377        -5.59734         0.10618
O          0.80866        -1.09974        -3.29794
O          6.12337        -5.49687        -1.96874
O          5.67042        -3.44759         0.97577
H          6.16165        -4.00945         1.62759
O          5.05853         7.78604         3.22855
H          4.79332         6.85418         3.42603
O         -7.67705         1.73382        -0.98410
O          5.27483         2.63026        -1.43470
O         -8.48818         2.36505         3.16748
H         -8.23027         1.59617         3.73807
O         -3.01022        -2.67193         2.14979
H         -3.41083        -2.17643         2.89623
O         -0.93773         2.42764        -0.17935
H         -1.01935         3.18657         0.43823
O          3.77524        -0.89310        -2.90934
O         -1.09586         4.52047        -3.21599
O         -0.46671         1.19444        -3.27561
O          8.64584        -5.97036        -1.17511
H          8.12506        -6.00009        -2.00935
O         -5.55593         1.91571        -2.60411
H         -6.10731         2.49815        -3.17041
O          9.48982        -1.44786         3.10729
H          8.52426        -1.59005         3.23716
O          0.85773         5.95497        -2.84755
H          0.44951         5.32954        -3.49397
O         -4.63444        -8.24392        -1.32362
H         -4.58238        -7.67741        -2.12247
O          6.42874        -0.73654        -1.82854
O         -6.82305         4.13231        -2.28941
O         -3.80677         9.68043        -2.66538
H         -3.90650        10.64177        -2.82582
O          2.35830         7.65287        -1.73719
O          7.56047        -5.12340         2.19135
H          8.02421        -4.68641         2.93649
O          9.35178         4.33867        -0.09525
H          9.24560         3.71187        -0.85142
O          6.42142         5.57916        -0.72981
O         -5.13173        -5.81052        -0.93113
H         -4.96954        -5.00431        -1.47785
O         -9.91364        -3.04395         3.21022
H        -10.18492        -3.10278         2.27103
O         -3.12491         5.04840        -0.27207
O          3.60033        -5.00156         0.61558
H          2.69453        -4.64741         0.74487
O         -2.37514        -5.04533         1.36779
H         -2.88739        -4.68094         2.12809
O         -0.03193        -7.06525        -3.30435
H          0.86099        -7.14911        -3.71491
O         -7.86746         7.27750        -2.56810
H         -7.09942         6.90447        -3.06020
O         -3.77453         2.55499         0.45368
H         -3.67900         2.06084         1.30353
O          3.40188         3.09170         1.66515
H          2.44767         3.13700         1.90703
O         -2.84406        -6.15649        -2.12441
O          4.16678         5.16123        -1.18982
H          4.03519         6.07051        -1.53281
O          8.32924        -2.78867        -1.46075
H          7.79330        -2.19491        -2.04008
O         -8.93820         0.07455         0.29805
H         -9.00111         0.58386        -0.54657
O          5.97165         3.43608         2.12524
H          5.01507         3.47745         2.38002
O          5.60625         0.65726         1.50396
H          6.14508         0.01644         2.03265
O         -7.31601         4.17721         1.72993
H         -7.60078         3.68225         2.54044
O         -4.27141        -3.25104        -1.23537
H         -3.79804        -3.20144        -2.09430
O          5.84853        -3.08549        -2.65637
H          5.38086        -2.45121        -3.24492
O         -7.54206        -5.04702        -0.13339
H         -7.01452        -5.57376        -0.78160
H         11.95807        -1.24634         1.62718
H         11.96154         1.20147         1.70977
H         10.53730         3.26829         2.18864
H          8.84021         5.13286         2.82056
H          7.60593         7.45958         2.69609
H          6.67702         9.73711         1.79225
H          4.93824        10.99326         0.62389
H          2.46348        11.13253         0.10064
H         -0.06445        11.11644        -0.10008
H         -2.44084        11.13834        -0.49164
H         -4.99194        11.11181        -0.31032
H         -7.05753         9.78605        -0.16013
H         -8.35094         7.79784        -0.62192
H         -9.32808         5.73256         0.30917
H        -10.11656         2.81248         0.24964
H        -11.28279         1.41087         2.38895
H        -10.95590        -0.89150         3.14143
H         -8.30466        -2.48110         4.35309
H         -8.77231        -4.98924         2.46147
H         -7.93259        -7.30767         1.44098
H         -6.55328        -9.61071         1.59378
H         -4.51010       -10.77888         1.16282
H         -3.01882       -10.47906        -1.23552
H         -0.00786       -10.99159        -0.44331
H          3.04514       -10.59175        -1.58117
H          4.66054       -10.91146         0.92159
H          6.84800        -9.79600         1.01849
H          8.19909        -7.78482         0.86594
H          9.39015        -5.57307         1.26616
H         10.36829        -3.55390         1.97708
