         720
 CSIRO Nanostructure Databank - Neutral Graphene Oxide Data Set
C         22.88421        27.78480         0.62165
C         22.91923        29.12852         0.29788
C         22.91464        31.93272        -0.76401
C         22.93486        33.24754        -1.11380
C         23.03144        36.16745        -1.44843
C         23.01011        37.43901        -1.90722
C         23.03471        40.40177        -2.21901
C         23.02706        41.64184        -1.67380
C         22.98585        44.24436        -0.33919
C         22.95055        45.51006         0.17796
C         25.24166        24.91188         1.02945
C         24.06888        25.62565         0.98062
C         25.32228        27.64924         0.39128
C         24.07589        27.01596         0.66861
C         25.31483        29.01164        -0.05749
C         24.13078        29.75182        -0.10288
C         25.30989        31.66655        -1.36595
C         24.20030        31.24002        -0.40408
C         25.36708        33.15113        -1.60049
C         24.16942        33.97319        -1.29391
C         25.49926        36.03732        -1.66921
C         24.24640        35.36980        -1.45212
C         25.51959        37.44788        -1.94441
C         24.25418        38.11817        -2.29402
C         25.55190        40.34378        -2.12720
C         24.28774        39.66378        -2.43883
C         25.51152        41.86027        -2.11415
C         24.23722        42.39922        -1.45447
C         25.38194        44.54369        -0.93750
C         24.18353        43.67304        -0.90501
C         25.36773        45.81187        -0.18397
C         24.13266        46.32683         0.27976
C         25.26380        48.36564         0.97634
C         24.10373        47.61499         0.86297
C         27.79707        23.41284         1.20132
C         27.74617        24.79954         1.06039
C         26.51426        25.54807         0.86350
C         27.82935        27.72220         0.57088
C         26.54216        26.92233         0.55847
C         27.83732        28.77459        -0.53133
C         26.54420        29.49189        -0.73727
C         27.91117        31.54937        -1.55240
C         26.58401        30.85375        -1.37049
C         27.91244        33.02429        -1.87397
C         26.70957        33.82194        -1.39577
C         27.94877        35.96611        -1.83746
C         26.74725        35.30516        -1.71750
C         27.97261        37.45233        -1.52182
C         26.70763        38.18087        -1.90290
C         27.99819        40.33829        -1.72400
C         26.72464        39.62512        -1.93836
C         27.96749        41.78685        -1.50316
C         26.78397        42.48198        -1.57481
C         27.92432        44.61226        -0.78609
C         26.72379        43.93814        -1.31208
C         27.83475        45.83743        -0.18436
C         26.56744        46.50921         0.05642
C         27.73446        48.62346         0.69929
C         26.52363        47.83770         0.59961
C         27.77328        49.99974         0.95112
C         30.27348        23.29360         1.29988
C         29.00017        22.68941         1.29271
C         30.32200        24.77803         1.34822
C         29.01511        25.54557         1.17100
C         30.30572        27.50317         0.34654
C         29.10035        26.90833         0.61317
C         30.31914        28.97062        -0.03650
C         29.17965        29.37890        -0.99524
C         30.37623        31.63299        -1.21445
C         29.17399        30.90593        -1.15744
C         30.44378        33.00215        -1.59575
C         29.22630        33.73679        -2.00981
C         30.45124        35.97957        -1.52238
C         29.25962        35.27122        -2.21602
C         30.52419        37.45332        -1.96917
C         29.22297        38.20205        -1.95649
C         30.52657        40.39820        -1.82025
C         29.19489        39.67280        -1.76980
C         30.43560        41.82387        -1.30963
C         29.24035        42.47262        -1.23982
C         30.44061        44.55982        -0.45484
C         29.24245        43.98818        -1.18172
C         30.33099        45.80774         0.18250
C         29.00486        46.40345         0.57969
C         30.28505        48.67494         0.86460
C         29.02213        47.92960         0.50908
C         30.23554        50.11528         1.22980
C         28.96309        50.72208         1.15562
C         32.66641        20.44069         0.68623
C         31.51804        21.17713         0.79677
C         32.76600        23.24041         1.43201
C         31.47866        22.54681         1.22369
C         32.81773        24.73025         1.21834
C         31.56502        25.47656         0.96489
C         32.83668        27.52440         0.38597
C         31.57040        26.80428         0.55961
C         32.88635        28.81120        -0.10212
C         31.64051        29.44640        -0.59819
C         32.91453        31.63039        -0.79010
C         31.65871        30.87150        -1.05374
C         32.94853        33.08872        -1.06866
C         31.72771        33.72947        -1.65105
C         33.00099        35.96636        -1.29835
C         31.76662        35.25076        -1.73694
C         32.99231        37.37551        -1.20721
C         31.87043        38.20251        -1.84485
C         32.92140        40.35400        -0.93688
C         31.62277        39.57928        -1.07772
C         32.94525        41.71360        -0.86710
C         31.75346        42.57476        -1.29311
C         32.95209        44.68757        -0.41462
C         31.67295        43.90642        -0.57632
C         32.84392        45.86261         0.52869
C         31.52178        46.42244         0.77507
C         32.74333        48.56843         1.60018
C         31.47235        47.85248         1.25615
C         32.68103        50.05181         1.83294
C         31.43670        50.80549         1.55219
C         32.67083        52.92152         1.88671
C         31.51429        52.23725         1.62698
C         35.22465        18.78880         0.82786
C         35.24369        20.18964         0.90186
C         33.97613        20.95752         1.13662
C         35.38683        23.16225         1.43715
C         34.03872        22.43150         1.43005
C         35.36889        24.62591         0.97965
C         34.06866        25.33494         0.63080
C         35.38694        27.42629         0.41141
C         34.07734        26.84873         0.93863
C         35.40332        28.76789        -0.23962
C         34.13532        29.52884        -0.35424
C         35.44645        31.52177        -1.19537
C         34.17160        30.85334        -0.70384
C         35.42059        33.05324        -1.13047
C         34.25969        33.78520        -1.17110
C         35.40801        35.97178        -0.87514
C         34.21981        35.25012        -1.12241
C         35.40775        37.38270        -0.73032
C         34.18423        38.07500        -0.90571
C         35.45160        40.25699        -0.49162
C         34.19515        39.55964        -0.93955
C         35.25713        41.62911         0.11367
C         34.27532        42.45280        -0.73596
C         35.27642        44.41843         0.40996
C         34.16623        43.84243        -0.12999
C         35.23648        45.75892         1.02135
C         33.99173        46.53269         0.95250
C         35.26903        48.60103         1.53270
C         34.02623        47.88722         1.38437
C         35.25164        50.11524         1.35912
C         34.00471        50.76165         1.97366
C         35.25588        52.94995         2.17879
C         33.96016        52.23869         2.07547
C         35.25173        54.07129         2.98925
C         37.65381        18.72283         0.65601
C         36.41269        18.06844         0.71442
C         37.69091        20.13403         0.68745
C         36.48729        20.85739         0.86469
C         37.76378        23.06391         0.49259
C         36.48649        22.34831         0.75583
C         37.79849        24.56262         0.51678
C         36.55327        25.28823         0.85622
C         37.94585        27.46761         0.59511
C         36.64404        26.79670         1.01488
C         37.80722        28.91336         0.39273
C         36.66025        29.54052        -0.16582
C         37.87186        31.64033        -0.46447
C         36.67483        30.90702        -0.53623
C         38.03977        33.02221        -1.04812
C         36.71337        33.77312        -1.22511
C         37.93298        35.96779        -0.57560
C         36.69277        35.26364        -0.98376
C         37.87912        37.39449        -0.34517
C         36.66172        38.08364        -0.43134
C         37.79739        40.14346         0.33951
C         36.65532        39.48315        -0.12082
C         37.73602        41.55648         0.85869
C         36.55789        42.34614         0.36706
C         37.77068        44.43652         0.80596
C         36.53817        43.69756         0.55756
C         37.77793        45.81719         1.01475
C         36.51312        46.48069         1.35921
C         37.79313        48.60626         1.83544
C         36.48275        47.94358         1.49059
C         37.75725        50.12762         1.79246
C         36.57802        50.79679         1.77564
C         37.80810        52.93427         2.22907
C         36.53822        52.33999         1.64109
C         37.68357        53.97392         3.14336
C         36.45183        54.58337         3.48135
C         40.19912        15.98862         1.40643
C         39.00534        16.62585         1.26094
C         40.23542        18.63443         0.28132
C         38.91439        17.91905         0.57015
C         40.21491        20.14224         0.00832
C         39.01623        20.84115         0.65800
C         40.32627        23.06178         0.28962
C         39.06147        22.33542         0.60975
C         40.35029        24.47213         0.27075
C         39.09532        25.28172         0.34584
C         40.47968        27.34552         0.38227
C         39.14972        26.76581         0.56093
C         40.69847        28.73419         0.61945
C         38.86299        29.78272         0.68987
C         40.31370        31.70530         0.12998
C         38.99933        31.06300         0.15182
C         40.32743        33.09418        -0.02364
C         38.99681        33.79890        -0.10276
C         40.40252        36.01335        -0.47421
C         39.09880        35.26646        -0.43154
C         40.28134        37.36589         0.15068
C         39.07766        38.06064         0.11553
C         40.24267        40.18176         0.70957
C         39.04327        39.46321         0.45741
C         40.26091        41.60894         0.72265
C         39.03959        42.31582         0.73257
C         40.22121        44.49410         0.68934
C         39.01594        43.73292         0.76409
C         40.18053        45.87883         0.57790
C         38.97119        46.59315         0.86609
C         40.16810        48.76417         0.89724
C         38.97852        47.99147         1.10653
C         40.26514        50.08713         1.31894
C         39.11808        50.76990         2.08170
C         40.43737        53.00289         2.25855
C         39.10839        52.31234         1.74347
C         40.39218        54.50402         1.98178
C         39.55355        55.30314         2.86684
C         40.64453        57.39211         2.32209
C         39.59286        56.67736         2.94303
C         42.72341        15.97730         1.40622
C         41.45302        16.64945         1.12908
C         42.74713        18.73690         0.87186
C         41.46383        17.96561         0.71653
C         42.70381        20.13489         0.31664
C         41.53558        20.85410         0.28504
C         42.77097        23.02117         0.17862
C         41.53888        22.31808         0.24210
C         42.77482        24.40979        -0.04413
C         41.57476        25.15035         0.03432
C         42.89846        27.29950        -0.04143
C         41.62018        26.60323         0.02469
C         42.95643        28.75724        -0.09930
C         41.71544        29.50517         0.03622
C         42.58970        31.74465        -0.54796
C         41.54239        30.95618        -0.05118
C         42.77429        33.11393        -0.22892
C         41.55169        33.81881        -0.03303
C         42.82902        35.86604         0.15377
C         41.60219        35.23317        -0.00192
C         42.81773        37.38156         0.08458
C         41.51449        37.96846         0.63330
C         42.80500        40.18410         0.86405
C         41.50381        39.46356         0.90702
C         42.73273        41.63807         0.87232
C         41.52966        42.31274         0.77842
C         42.75812        44.55000         0.49544
C         41.52733        43.81218         0.99593
C         42.69633        45.95695         0.33054
C         41.35905        46.58864        -0.03712
C         42.54518        48.89139        -0.15723
C         41.28573        48.12184         0.11909
C         42.68540        50.25256         0.42957
C         41.55984        50.81695         1.20734
C         42.81857        53.07492         1.07668
C         41.67282        52.29942         1.63425
C         42.84734        54.52955         1.13613
C         41.61480        55.27640         1.42640
C         42.93038        57.39388         1.45545
C         41.69985        56.71884         1.72214
C         43.91351        16.53233         1.08727
C         45.24299        18.57291         0.05643
C         43.95969        17.89172         0.47641
C         45.24696        20.08366        -0.22122
C         44.03158        20.80249         0.37655
C         45.34472        22.99376         0.16763
C         44.04347        22.28646         0.36317
C         45.30726        24.44348        -0.14032
C         44.01517        25.10919        -0.54725
C         45.38700        27.16378         0.12997
C         44.07942        26.56857        -0.18480
C         45.41781        28.66361         0.37897
C         44.22731        29.36739        -0.07571
C         45.44064        31.54748        -0.10708
C         44.45635        30.70167        -0.53455
C         45.39048        33.03846        -0.43375
C         44.05052        33.75650        -0.15079
C         45.32340        35.87116         0.28260
C         44.05760        35.13196         0.14641
C         45.29773        37.31007         0.48140
C         44.01335        37.96726         0.89797
C         45.31797        40.15698         1.14641
C         43.99233        39.48883         0.85530
C         45.29985        41.68997         1.00437
C         43.98684        42.42500         0.95681
C         45.25864        44.61133         0.54917
C         43.95946        43.83956         0.53015
C         45.13100        45.95845        -0.12069
C         43.94891        46.79704         0.31036
C         45.03979        48.86543        -0.60334
C         43.77595        48.07508        -0.60335
C         45.16281        50.20589         0.07999
C         43.86615        50.96394         0.31664
C         45.07583        53.20143        -0.02334
C         43.92226        52.38673         0.57831
C         45.25349        54.57452         0.58285
C         44.03526        55.25696         0.97960
C         44.04809        56.68929         1.10876
C         47.72375        18.62340         0.23595
C         46.56223        17.92892         0.24302
C         47.78435        20.07294         0.09236
C         46.57514        20.78929         0.05161
C         47.79709        22.88351        -0.26245
C         46.59304        22.20855        -0.02445
C         47.80215        24.32757        -0.58057
C         46.54947        25.11380        -0.63243
C         47.84712        27.24407        -0.46412
C         46.66303        26.56260        -0.33832
C         47.98391        28.63699         0.07246
C         46.72878        29.40358         0.42111
C         47.94375        31.64993        -0.00496
C         46.70808        30.90128         0.33205
C         47.87072        33.04239        -0.01471
C         46.54547        33.69081         0.35644
C         47.82334        35.90374         0.44326
C         46.52376        35.18893         0.21353
C         47.71437        37.33508        -0.02716
C         46.47053        38.06294         0.33460
C         47.67819        40.19655         0.23256
C         46.48566        39.46514         0.47159
C         47.63520        41.62327         0.14743
C         46.49307        42.38354         0.43976
C         47.61864        44.40984        -0.37751
C         46.45510        43.77087         0.15282
C         47.54359        45.77374        -0.85941
C         46.36074        46.62902        -0.55206
C         47.48157        48.99302        -1.16351
C         46.33222        48.13619        -0.70222
C         47.51339        50.30616        -0.81040
C         46.22648        51.06027        -0.63800
C         47.60072        53.24464        -0.49142
C         46.41341        52.42357         0.03418
C         47.60849        54.56436        -0.15933
C         46.46738        55.19821         0.45901
C         50.33219        20.16683         0.03926
C         49.04181        20.77264        -0.01514
C         50.23681        22.87316        -0.61259
C         49.02688        22.16867        -0.29544
C         50.09343        24.22297        -1.10783
C         49.07493        25.06262        -0.72868
C         50.42260        27.34056        -1.12558
C         49.08329        26.53389        -0.96307
C         50.37963        28.88291        -1.03328
C         49.22439        29.43864        -0.19301
C         50.33724        31.64138        -0.48467
C         49.16569        30.93520        -0.20933
C         50.27573        33.10060        -0.65095
C         49.04376        33.82634        -0.27360
C         50.29448        35.95980        -0.15673
C         49.05405        35.20904        -0.11377
C         50.27581        37.38907         0.04182
C         49.01499        38.11082        -0.11430
C         50.14870        40.29298         0.28353
C         48.93722        39.55034         0.07424
C         50.11297        41.66052         0.11480
C         48.84902        42.21993        -0.49649
C         50.05334        44.34783        -0.94277
C         48.81838        43.70518        -0.57831
C         49.98943        45.72980        -1.43025
C         48.64103        46.22844        -1.55050
C         49.94767        48.85389        -1.44779
C         48.68894        48.40907        -1.71273
C         50.03206        50.26565        -1.02025
C         48.75516        51.05401        -1.11507
C         50.15888        53.15818        -1.06872
C         48.79960        52.54352        -1.03751
C         51.49559        20.90689        -0.08084
C         52.76552        23.10575        -0.24818
C         51.51242        22.30740        -0.38122
C         52.91189        24.50204        -0.51144
C         51.93849        25.32693        -1.13723
C         52.84534        27.39403        -0.24321
C         51.74487        26.69230        -0.89472
C         52.80386        28.85382        -0.15713
C         51.64621        29.55321        -0.52224
C         52.82548        31.71223        -0.25614
C         51.61325        30.96967        -0.46838
C         52.84180        33.12938        -0.28914
C         51.60375        33.87779        -0.57421
C         52.79971        36.08586        -0.29009
C         51.52505        35.30012        -0.23994
C         52.68243        37.43737         0.36468
C         51.46310        38.10319         0.37417
C         52.66083        40.37473         0.88145
C         51.38278        39.56793         0.69908
C         52.62981        41.86776         0.54442
C         51.30701        42.51433         0.18419
C         52.50928        44.61899        -0.69291
C         51.26538        43.77428        -0.60128
C         52.41847        45.74151        -1.73237
C         51.11798        46.51257        -1.61886
C         52.41915        48.75411        -1.82501
C         51.20411        48.00597        -1.30370
C         52.48628        50.13658        -1.73312
C         51.34619        50.96235        -1.19963
C         51.29163        52.45087        -1.26677
C         55.01689        23.18527         0.83076
C         53.85125        22.49869         0.43856
C         55.20642        24.53330         0.57274
C         54.19155        25.25114        -0.26239
C         55.08437        27.35029         0.93639
C         53.98249        26.70227         0.11956
C         55.14014        28.87408         0.77556
C         53.97459        29.58197         0.20710
C         55.27241        31.70645         0.19248
C         54.01928        30.98732         0.08136
C         55.27709        33.15026         0.09271
C         54.04898        33.85959        -0.04499
C         55.24394        35.97470         0.26445
C         54.04543        35.28970         0.05665
C         55.24653        37.40760         0.65362
C         53.91205        38.13303         0.75895
C         55.18363        40.15466         1.02192
C         53.94056        39.60308         0.81198
C         55.16520        42.18241         0.30814
C         53.82945        42.48319        -0.13955
C         54.99880        44.50372        -1.23018
C         53.75127        43.79068        -0.95124
C         54.91693        45.90293        -1.63746
C         53.69212        46.56165        -1.73581
C         54.91627        48.69700        -2.29391
C         53.60641        47.94901        -2.32973
C         54.86561        50.10653        -2.35630
C         53.69347        50.80594        -2.12675
C         57.71142        24.55347         0.80724
C         56.44452        25.26656         0.74984
C         57.66498        27.43193         0.38219
C         56.41923        26.65097         0.72427
C         57.76459        28.82697         1.04252
C         56.46765        29.62319         0.82508
C         57.74780        31.71730         0.08790
C         56.47684        31.01009         0.33068
C         57.75762        33.18663         0.18888
C         56.50475        33.87578         0.17786
C         57.72732        36.03826         0.24161
C         56.49382        35.29545         0.24840
C         57.72170        37.47284         0.23760
C         56.48542        38.19479         0.46626
C         57.63843        40.46488         0.39198
C         56.44208        39.57406         0.62888
C         57.56313        41.85736        -0.18670
C         56.31730        42.58084        -0.35514
C         57.45375        44.45785        -1.47374
C         56.22510        43.82611        -1.09852
C         57.38227        45.79559        -2.08308
C         56.13938        46.57901        -2.00243
C         57.42358        48.66010        -2.35471
C         56.14715        47.96654        -2.27874
C         58.89637        25.21832         0.75756
C         60.13626        27.32946         0.57020
C         58.95008        26.65132         0.60706
C         60.15854        28.76270         0.38918
C         59.03730        29.51473         0.54110
C         60.23111        31.79268         0.58123
C         59.06252        30.97211         0.24307
C         60.19261        33.14935         0.49211
C         58.97042        33.88471         0.25009
C         60.16187        36.08533         0.11256
C         58.96472        35.33543         0.20524
C         60.14275        37.47104         0.06326
C         58.93179        38.19023         0.14320
C         59.99801        40.36472        -0.62175
C         58.94288        39.68607         0.14145
C         59.91796        41.68464        -0.92357
C         58.71565        42.45763        -0.71358
C         59.90043        44.58772        -1.34691
C         58.67621        43.82570        -1.22606
C         59.91819        45.89739        -1.71700
C         58.71909        46.56833        -2.22604
C         58.62142        48.03224        -2.24817
O         55.27191        41.47380         1.49795
O         29.89075        48.45274        -0.54425
O         54.58260        37.55792         1.95825
O         45.44963        24.03651         1.23846
O         27.00385        28.42542        -1.66222
O         39.86556        29.34551         1.55732
O         39.51953        17.89793        -0.77427
O         32.36888        38.50461        -3.10762
O         46.73976        47.57649         0.62811
O         36.81502        34.68785        -2.35988
O         44.76678        42.28160         2.24884
O         49.62700        26.91694        -2.27269
O         41.43860        38.46701         1.99427
O         42.08666        51.23454         2.53537
O         44.16762        21.51115         1.64730
O         49.04038        28.77056         1.08895
O         31.24916        46.78853         2.21853
O         48.25389        37.61975        -1.31318
O         32.84983        24.19330         2.56986
O         42.86246        37.74776        -1.26334
O         53.64375        42.49542        -1.59896
O         32.56463        49.11344         2.96765
O         43.50649        31.18443        -1.43291
O         35.43981        27.51659        -1.04339
O         46.78322        30.22821         1.64128
O         38.75677        54.61438         3.78170
O         47.04789        24.60684        -1.89060
O         58.49984        31.23192        -1.09519
O         41.47630        48.82338        -1.16220
O         45.32969        27.74135         1.48986
O         44.36928        17.88604        -0.92597
O         28.47505        33.19798        -3.18822
O         51.06190        24.67245        -2.00064
O         51.96053        42.69473         1.52748
O         24.26439        38.77357        -3.59400
O         29.64843        25.40511         2.49589
O         50.95294        33.56371        -1.86070
O         51.84553        39.98172         2.02573
O         55.59204        29.51839         2.02275
O         33.95164        21.46384         2.52939
O         32.71359        32.60295         0.30897
O         48.56456        51.85059        -2.35166
O         25.94873        44.70436        -2.30326
O         35.76381        45.75187         2.40541
O         25.04248        32.20860        -2.68071
O         31.76161        29.78045        -2.01508
O         31.92861        34.44554        -2.91995
O         29.83694        37.77596        -3.19968
O         27.23745        30.80775        -2.65959
O         34.08192        51.33353         3.31018
O         36.86317        22.67782        -0.61627
O         35.15995        50.33071        -0.03098
O         40.44816        54.90830         0.60053
O         50.87446        50.53245         0.15266
O         48.47069        47.26110        -2.46857
O         35.15827        40.10909        -1.90798
O         58.08244        45.91366        -3.36496
O         38.23838        25.01967        -0.83438
O         39.24418        21.59269         1.88582
O         58.65076        40.30987         1.43555
O         43.81107        37.54697         2.27309
H         44.43955        38.07550         2.81888
O         45.77776        51.23971        -2.01232
H         46.55078        51.59633        -2.51685
O         43.56182        47.55991        -1.94497
H         43.37184        48.32567        -2.52906
O         52.37426        45.09979        -3.03986
H         52.45374        45.82028        -3.70862
O         33.90927        25.16265        -0.79654
H         34.57460        25.72313        -1.25953
O         27.80959        28.48610         1.83669
H         27.87287        27.83819         2.57234
O         30.89999        40.56099        -3.21003
H         31.37383        39.71872        -3.51178
O         36.65199        27.02733         2.45117
H         35.76408        26.77587         2.80877
O         43.97269        25.00320        -2.00311
H         43.12659        25.38670        -2.31654
O         52.98595        36.40924        -1.73797
H         52.61160        35.66526        -2.25991
O         29.44966        28.80663        -2.28123
H         28.65316        28.97051        -2.83779
O         40.02251        20.32671        -1.41849
H         39.66485        19.47704        -1.77326
O         33.16620        45.29476        -1.74613
H         32.91319        44.61430        -2.41756
O         29.42854        35.46791        -3.62607
H         28.90292        34.78086        -4.09488
O         47.98526        35.94629         1.89682
H         47.61392        35.10808         2.26029
O         25.41864        42.27182        -3.51285
H         25.54536        43.25183        -3.52383
O         39.17071        52.40101         0.31338
H         38.24678        52.48537        -0.04458
O         45.67766        33.22845        -1.83654
H         44.93517        32.84068        -2.34835
O         40.56639        52.89902         3.67302
H         40.77922        51.95902         3.88501
O         40.69455        36.29580        -1.88772
H         41.53485        36.85982        -1.88997
O         51.42072        47.92719         0.14895
H         51.37268        48.85422         0.50192
O         41.20380        46.27360        -1.45225
H         41.88402        46.80882        -1.93651
O         46.34268        33.46826         1.78592
H         46.43594        32.50822         1.97713
O         50.19161        29.39051        -2.37467
H         49.82020        28.65663        -2.91897
O         34.82929        42.63704        -2.05533
H         34.07466        42.74518        -2.68018
O         24.68122        31.85186         0.86387
H         24.03771        31.62452         1.56939
O         35.81121        23.23553         2.82404
H         35.00837        23.33564         3.38099
O         54.71032        27.08319         2.32450
H         54.97542        27.87092         2.85261
O         30.16268        29.73005         1.19178
H         29.35128        29.39948         1.65827
O         48.85613        41.74351        -1.90423
H         48.04893        42.08895        -2.34144
O         34.01735        26.98027         2.38289
H         33.60540        27.83917         2.61247
O         46.73793        52.17585         1.41623
H         46.76005        53.03789         1.88224
O         41.64250        43.95801         2.46269
H         40.93887        43.41248         2.87448
O         45.65702        49.89738         1.40773
H         45.21335        49.06702         1.71278
O         53.31634        47.69239        -3.78495
H         54.17052        47.44544        -4.20342
O         26.86118        33.78700         0.07560
H         26.07726        33.34107         0.47847
O         35.52056        31.21916        -2.61906
H         35.59837        30.24744        -2.72663
O         44.17071        47.36245         1.64550
H         44.63245        46.65396         2.16349
O         44.69187        53.49602        -1.38845
H         44.67325        52.64314        -1.88781
O         52.70673        45.22993         0.60444
H         52.46926        44.56590         1.29612
O         45.43507        44.92642         1.99117
H         45.27295        44.07349         2.47221
O         45.54707        39.86078         2.56793
H         45.18319        40.63174         3.06846
O         34.64562        41.42284         1.42255
H         35.37502        41.22822         2.05683
O         39.35967        50.60152         3.49235
H         39.10460        49.67042         3.71941
O         57.95754        28.65689         2.46054
H         57.10071        28.85889         2.90410
O         38.03150        48.25480         3.25896
H         37.16129        48.22315         3.71363
O         54.84993        25.34389        -1.60827
H         54.16382        25.64028        -2.24665
O         37.47559        41.40008         2.31917
H         37.50455        42.29822         2.71611
O         28.02766        37.50327        -0.03440
H         27.24148        37.02322         0.30627
O         32.07652        42.90024        -2.69992
H         31.70550        42.13864        -3.23402
O         45.08204        20.25236        -1.65744
H         44.66437        19.42710        -2.00086
O         28.72987        46.02462         1.96192
H         29.54938        46.21569         2.48406
O         31.10616        39.28675         0.23002
H         31.84319        39.02064         0.81787
O         38.65644        32.87346        -2.33226
H         38.33879        33.62152        -2.89191
O         42.90693        18.95276         2.31939
H         43.24778        19.86446         2.47128
O         30.26666        35.94562        -0.09195
H         29.49577        36.52627         0.14924
O         57.53620        27.69310        -1.05011
H         57.45773        26.82973        -1.50932
O         38.35176        33.73976         1.20883
H         38.97489        34.09984         1.87450
O         36.50049        52.55001         0.19200
H         35.95145        51.77956        -0.17951
O         29.41460        44.39487        -2.57811
H         29.41939        45.37478        -2.61495
H         21.92543        27.30258         0.85981
H         21.98154        29.70083         0.29785
H         21.95328        31.41064        -0.66743
H         21.97698        33.76361        -1.27093
H         22.08528        35.69182        -1.15828
H         22.05268        37.96881        -2.00091
H         22.08656        39.91962        -2.49191
H         22.05769        42.12091        -1.47729
H         22.06223        43.64994        -0.32927
H         22.00647        45.90943         0.57609
H         25.20141        23.83988         1.26387
H         23.10904        25.12553         1.17401
H         25.20585        49.37607         1.40414
H         23.14511        48.02832         1.20748
H         26.86518        22.83099         1.17595
H         26.82862        50.55920         1.01348
H         28.93130        21.59396         1.34305
H         28.87318        51.80104         1.34433
H         32.61263        19.42502         0.26951
H         30.57290        20.70821         0.48618
H         32.65804        54.02098         1.88096
H         30.59952        52.81910         1.44381
H         34.26945        18.24779         0.86999
H         34.29690        54.50752         3.31523
H         36.37273        16.97157         0.66773
H         36.45983        55.44390         4.16220
H         40.23394        14.99606         1.87950
H         38.08831        16.17353         1.66485
H         40.71509        58.47913         2.46925
H         38.89353        57.20302         3.60613
H         42.68456        14.96152         1.82725
H         42.97283        58.48571         1.57763
H         44.84570        15.96316         1.21398
H         44.98247        57.23404         0.92457
H         48.66789        18.07201         0.34967
H         46.58369        16.83509         0.35141
H         48.48681        55.19293        -0.36843
H         46.59960        56.23922         0.78440
H         50.41997        19.08610         0.21921
H         50.22257        54.25643        -1.03387
H         52.44419        20.36179         0.01699
H         52.23993        52.99996        -1.36933
H         55.77615        22.62585         1.39688
H         53.78315        21.44478         0.73598
H         55.78444        50.68621        -2.51815
H         53.71937        51.90330        -2.15053
H         57.69422        23.45827         0.89347
H         57.41891        49.75665        -2.41305
H         59.84622        24.66789         0.83269
H         61.08973        26.78512         0.63903
H         61.11029        29.23776         0.10819
H         61.14456        31.29208         0.93372
H         61.10558        33.71436         0.72622
H         61.13083        35.57090         0.06539
H         61.09683        38.01208         0.00237
H         60.86163        39.78192        -0.97151
H         60.74285        42.14883        -1.48175
H         60.83397        44.13178        -0.98808
H         60.84071        46.48789        -1.61265
H         59.54801        48.62085        -2.17317
