         349
 CSIRO Nanostructure Databank - Neutral Graphene Oxide Data Set
C          1.64823         2.19469         2.02388
C          1.47223         3.52235         1.66736
C          2.66389         1.38840         1.50612
C          2.20662         4.17479         0.51434
C          1.09522         6.40310         0.86995
C          0.85778         7.75676         0.81734
C          2.35465         5.68148         0.77001
C          1.90484         8.74172         0.98462
C          1.04993        10.66171        -0.30749
C          1.10062        11.99639        -0.52736
C          2.11913         9.96478         0.38038
C          2.24860        12.81919        -0.07911
C          1.20849        15.10043        -0.67210
C          1.35174        16.41384        -1.01010
C          2.36002        14.19292        -0.67538
C          2.64382        17.01197        -1.21731
C          2.75354        18.42731        -1.53992
C          3.67142         1.95551         0.61121
C          3.50516         3.38672         0.17016
C          4.99550         1.31725         0.50923
C          4.77601         4.13443        -0.13524
C          3.59474         6.28429         0.68596
C          3.84489         7.66256         1.04718
C          4.75788         5.61129         0.05885
C          4.87389         8.42897         0.59452
C          3.47615        10.62236         0.34879
C          3.50287        12.12678         0.38107
C          4.78736         9.90788         0.50130
C          4.84053        12.79185         0.24480
C          3.73952        14.83213        -0.74002
C          3.80363        16.28222        -0.96332
C          4.91769        14.14344        -0.16909
C          5.09924        16.90524        -0.99453
C          3.94948        19.01639        -1.74504
C          5.23999        18.23978        -1.69712
C          6.12464         1.99728         0.07260
C          6.09380         3.44019        -0.10018
C          7.38144         1.33686        -0.09792
C          7.28554         4.14615        -0.15427
C          6.05616         6.34535         0.19683
C          6.01496         7.81222        -0.16557
C          7.32473         5.60461         0.04750
C          7.33206         8.50318         0.11223
C          6.05658        10.63396         0.92586
C          6.03558        12.10165         0.53717
C          7.32664         9.92462         0.42327
C          7.25880        12.80438         0.60954
C          6.13563        14.86205        -0.07514
C          6.21604        16.23518        -0.54757
C          7.29292        14.19503         0.40898
C          7.58039        16.88401        -0.67298
C          6.38714        19.03638        -1.14700
C          7.50891        18.40306        -0.69639
C          8.55753         2.03945        -0.37884
C          8.55276         3.49757        -0.36572
C          9.78696         1.35496        -0.54701
C          9.71965         4.24363        -0.55846
C          8.56002         6.37490        -0.17422
C          8.52325         7.79720         0.02036
C          9.75193         5.68941        -0.44362
C          9.83329         8.49545         0.33125
C          8.50384        10.61741         0.41042
C          8.51266        12.03142         0.84171
C          9.78425         9.97117        -0.08866
C          9.83101        12.73734         0.95583
C          8.51597        14.96611         0.73632
C          8.49373        16.46363         0.48320
C          9.81756        14.23889         0.96923
C          9.87235        17.07283         0.35155
C          8.69546        19.12735        -0.35826
C          9.87882        18.49172         0.03343
C         10.98189         2.05218        -0.77598
C         10.94046         3.52870        -1.09164
C         12.20346         1.38565        -0.79194
C         12.23369         4.24000        -0.79174
C         10.98748         6.44788        -0.59033
C         11.05727         7.80136        -0.26016
C         12.21493         5.70786        -0.98582
C         12.28081         8.56897        -0.27338
C         11.07550        10.66952         0.31042
C         11.09783        12.03662         0.62209
C         12.27675         9.93127         0.09289
C         12.32476        12.78775         0.67586
C         11.09335        14.95720         0.77144
C         11.04852        16.38499         0.60656
C         12.30607        14.23875         0.73865
C         12.32160        17.16147         0.85313
C         11.11160        19.19818         0.00948
C         12.32705        18.54836         0.25207
C         13.45384         2.08235        -0.76897
C         13.42849         3.55962        -0.78554
C         14.61791         1.35948        -0.63051
C         14.67799         4.28967        -0.76717
C         13.52145         6.46986        -1.09802
C         13.48165         8.02289        -1.03879
C         14.74554         5.68554        -0.80238
C         14.93667         8.66384        -0.80892
C         13.58239        10.58263         0.47042
C         13.55657        12.09868         0.58660
C         14.86541        10.16246        -0.29204
C         14.78712        12.80415         0.64318
C         13.55826        14.96197         0.64137
C         13.57516        16.37463         0.57277
C         14.79585        14.24068         0.61277
C         14.78205        17.07630         0.39277
C         13.54666        19.20157         0.06353
C         14.78653        18.51217         0.18879
C         15.88878         2.03987        -0.22400
C         15.90131         3.46716        -0.75147
C         17.18228         1.32500        -0.55886
C         17.20419         4.17841        -0.60354
C         15.98070         6.36569        -0.44679
C         15.99479         7.80412        -0.12301
C         17.13011         5.60849        -0.30969
C         17.14567         8.39774         0.35143
C         15.91541        10.59192         0.80136
C         16.04454        12.09654         0.66396
C         17.23716         9.79818         0.94978
C         17.25015        12.76991         0.57523
C         16.02683        14.94073         0.54765
C         16.02845        16.37405         0.41148
C         17.27269        14.21611         0.50244
C         17.23293        17.10126         0.32100
C         15.99486        19.19292         0.02543
C         17.23974        18.51124         0.11051
C         18.38805         1.96285        -0.43549
C         18.39355         3.41830        -0.02537
C         19.66225         1.30529        -0.58546
C         19.66060         4.15306        -0.38549
C         18.38756         6.18598         0.15730
C         18.40083         7.62202         0.50664
C         19.62811         5.51781        -0.29067
C         19.67938         8.33878         0.28730
C         18.53513        10.53613         0.61959
C         18.54757        12.03017         0.31488
C         19.67478         9.77239         0.52756
C         19.76792        12.87472         0.69108
C         18.48086        14.93051         0.37960
C         18.52086        16.41082         0.63769
C         19.74622        14.25722         0.38315
C         19.75353        17.10946         0.12262
C         18.46469        19.20804        -0.02794
C         19.71589        18.53405        -0.05038
C         20.87799         1.98271        -0.54727
C         20.90510         3.44570        -0.54802
C         22.13657         1.30053        -0.58722
C         22.09437         4.14696        -0.60620
C         20.78549         6.33609        -0.64009
C         20.79574         7.76159        -0.26310
C         22.11367         5.59542        -0.81912
C         22.04113         8.53546        -0.70505
C         21.02738        10.26447         0.69649
C         21.03680        12.37862         1.01805
C         22.15152         9.84314         0.05286
C         22.23928        12.92761         0.56550
C         20.97427        14.97822         0.23028
C         20.96347        16.41467         0.03630
C         22.20804        14.28735         0.18340
C         22.19872        17.11584        -0.18225
C         20.92762        19.23082        -0.22998
C         22.16688        18.54948        -0.25768
C         23.35275         1.97317        -0.53327
C         23.41348         3.47537        -0.34099
C         24.59306         1.29091        -0.46285
C         24.52507         4.14536        -1.16991
C         23.37678         6.36842        -0.66336
C         23.33207         7.73127        -0.56123
C         24.64093         5.62497        -0.79432
C         24.61019         8.53182        -0.72322
C         23.40807        10.57690         0.17071
C         23.50527        12.07359         0.61039
C         24.58329         9.93224        -0.12935
C         24.57743        12.72924        -0.28456
C         23.44854        14.98682        -0.11590
C         23.44498        16.43493        -0.27200
C         24.60399        14.24030        -0.20362
C         24.66765        17.15299        -0.47464
C         23.39295        19.25245        -0.27819
C         24.64216        18.60836        -0.36021
C         25.81692         1.97395        -0.52517
C         25.84798         3.38178        -1.02931
C         27.01277         1.34584        -0.12265
C         27.15195         4.11574        -1.01077
C         25.83383         6.28448        -0.70955
C         25.81529         7.71636        -0.27920
C         27.15147         5.62485        -0.93977
C         27.08219         8.43314         0.06735
C         25.86990        10.62157         0.01090
C         25.89733        12.05047        -0.00723
C         27.05802         9.90865         0.13041
C         27.12630        12.75014         0.10036
C         25.84697        14.92242        -0.53219
C         25.88071        16.38859        -0.59128
C         27.17685        14.17940        -0.29941
C         27.15181        16.92210        -0.85812
C         25.79710        19.42579        -0.10703
C         27.10812        19.05922        -0.44350
C         28.26214         1.99511        -0.08155
C         28.39837         3.36736        -0.60868
C         29.40253         1.36803         0.46833
C         29.66641         4.13435        -0.26111
C         28.43117         6.35549        -0.60468
C         28.39874         7.76446        -0.10464
C         29.67224         5.60766        -0.27041
C         29.56863         8.44397         0.03306
C         28.30125        10.59214         0.62161
C         28.30789        12.07786         0.39628
C         29.57247         9.93030         0.12586
C         29.54754        12.80680         0.70211
C         28.35946        14.99084        -0.02832
C         28.38193        16.34461        -0.39615
C         29.54453        14.36099         0.55680
C         29.56300        17.16975        -0.13276
C         28.33043        19.41008         0.13081
C         29.52388        18.60631         0.01218
C         30.58645         2.06093         0.74033
C         30.71866         3.43790         0.49530
C         31.85606         4.19746         0.87875
C         30.83035         6.28217         0.06511
C         30.90234         7.76956        -0.26186
C         31.93967         5.54797         0.60335
C         32.06139         8.51535         0.36697
C         30.86612        10.67552         0.26931
C         30.84695        12.12962         0.61768
C         32.06782         9.84898         0.52585
C         31.99431        12.88905         0.63706
C         30.83086        15.05027         0.38082
C         30.79756        16.49664         0.14622
C         31.98878        14.31495         0.54871
C         31.98009        17.24131         0.31903
C         30.73802        19.29812         0.26165
C         31.95399        18.63686         0.34076
O          3.19519         2.34057        -0.79674
O         27.22112        18.14421        -1.51402
O         13.83043        10.03258         1.81901
O          9.16476        12.18594         2.15509
O         26.63089         3.55000        -2.26173
O         30.21572        10.49091        -1.06618
O          4.56798         5.04886        -1.27560
O         16.76486         3.70872        -1.91133
O         12.80659         6.02642        -2.29866
O         21.32673         6.05753        -1.97790
O          3.13567        14.15101        -1.91406
O         15.21519        10.40743         2.09834
O         26.60272        14.32405        -1.65397
O          2.90790         8.29995         1.86780
O         26.20044         7.83214         1.12673
O          2.59375        12.73955         1.35060
O         27.95077         6.25917        -1.99372
O         21.15981        11.19150         1.73927
O          6.76049         6.00562         1.41442
O         15.51256         8.69542        -2.09801
O         29.37886        13.71114         1.85298
O         18.42036         6.60240         1.59129
O         29.45356         3.52311        -1.59886
O          4.29840        10.23923        -0.85314
O          9.01822        14.74044         2.10064
O         31.10107         7.85616        -1.70012
H         30.91934         8.79239        -1.95241
O         23.76740         3.71512         1.05423
H         23.09179         3.28423         1.61910
O          9.72559        10.04964        -1.53675
H         10.54029         9.63880        -1.90198
O         21.90711         8.79789        -2.13175
H         21.69392         7.92825        -2.55167
O         15.82064         2.13135         1.23890
H         16.68050         2.51462         1.55356
O         18.25924         3.44522         1.43337
H         18.32260         4.38105         1.73286
O         15.02109        10.99557        -1.42808
H         15.35945        10.37133        -2.14072
O         28.34588        10.37467         2.07923
H         27.49845        10.69414         2.45696
O          5.60904        17.91136        -3.09016
H          4.84688        17.43527        -3.48507
O         24.76426         8.72046        -2.15907
H         23.89570         9.04674        -2.49796
O         17.45788         9.54672         2.37292
H         16.59404         9.29865         2.77483
O         24.11180         4.07045        -2.54271
H         24.92656         4.13831        -3.09263
O          1.30658         4.04563        -0.61884
H          1.56529         3.20972        -1.07814
O         23.99305        12.09412         1.97094
H         23.29590        11.69100         2.53324
O          7.90541        17.06605         1.66743
H          8.25948        16.56796         2.43978
O         13.11815         8.48954        -2.35494
H         14.00400         8.57711        -2.82483
O         18.64095        16.51204         2.12271
H         19.47135        16.05271         2.37418
O         24.21943        12.43162        -1.66312
H         24.90600        12.84559        -2.23255
O         12.34092        17.37559         2.31224
H         11.53052        17.87690         2.54536
O          9.98846         8.47718         1.77414
H          9.81911         7.56619         2.09268
O         10.81593         3.60111        -2.55701
H         11.21361         4.44885        -2.85625
O         18.65196        12.00791        -1.16130
H         18.43285        12.90417        -1.49559
O          8.17347        16.43521        -1.91352
H          7.60584        16.77489        -2.64198
O          5.74171         7.90214        -1.58470
H          5.29501         8.76401        -1.75316
O          6.08054        10.56093         2.37330
H          6.91018        10.97925         2.69042
H          0.97026         1.76078         2.77450
H          0.63816         4.08182         2.11552
H          2.79142         0.35855         1.86732
H          0.20814         5.76149         0.74927
H         -0.17137         8.09243         0.61554
H          0.15406        10.09129        -0.59462
H          0.27985        12.50293        -1.05505
H          0.23049        14.71201        -0.35331
H          0.46905        17.06964        -1.04137
H          1.82378        19.01005        -1.62448
H          5.06921         0.24555         0.74817
H          4.00465        20.08109        -2.01729
H          7.41759         0.24001        -0.01943
H          6.34816        20.13571        -1.19515
H          9.81316         0.26080        -0.42870
H          8.71118        20.21407        -0.53562
H         12.21626         0.29060        -0.67405
H         11.11814        20.24615        -0.32713
H         14.57210         0.25907        -0.62476
H         13.55355        20.25892        -0.24224
H         17.14978         0.25398        -0.81450
H         15.98638        20.27837        -0.15225
H         19.66790         0.21059        -0.70627
H         18.44432        20.29894        -0.16845
H         22.13803         0.20190        -0.66336
H         20.91407        20.32707        -0.31936
H         24.59898         0.20316        -0.28944
H         23.37011        20.35036        -0.21243
H         26.95357         0.31027         0.24718
H         25.63618        20.35404         0.46242
H         29.32538         0.31120         0.76327
H         28.39625        20.31674         0.75139
H         31.41880         1.52689         1.22144
H         32.69723         3.68603         1.36906
H         32.86695         6.07619         0.86097
H         32.98926         7.96397         0.57618
H         32.96401        10.34582         0.92679
H         32.97367        12.39072         0.59408
H         32.96947        14.80506         0.47892
H         32.93442        16.72736         0.49220
H         30.70456        20.39166         0.36962
H         32.88416        19.20191         0.48938
