         232
 CSIRO Nanostructure Databank - Neutral Graphene Oxide Data Set
C        -10.81689         0.94421         1.23314
C         -9.53184         1.67958         0.91219
C         -8.66870         0.87896        -0.09673
C         -7.38466         1.45921        -0.62444
C         -6.22128         0.70073        -0.89533
C         -4.99689         1.43194        -1.16316
C         -3.71941         0.78929        -1.31630
C         -2.56408         1.48220        -0.95073
C         -1.27769         0.78430        -1.16699
C         -0.00666         1.54227        -1.10146
C          1.28862         0.77935        -1.10240
C          2.49747         1.49793        -0.67732
C          3.64398         0.78757        -0.36827
C          4.79016         1.50382         0.25435
C          6.06176         0.74251         0.59665
C          7.32972         1.58072         0.44193
C          8.58864         0.86771         0.43032
C          9.83640         1.61734         0.53238
C         11.07638         0.86491         0.48399
C         -9.71361         3.19549         0.83623
C         -8.99879         4.01590        -0.01622
C         -7.36863         2.82173        -0.99050
C         -6.21337         3.59318        -1.06416
C         -4.97748         2.87265        -1.07163
C         -3.74868         3.58816        -0.93353
C         -2.58103         2.86764        -0.69995
C         -1.36828         3.50725        -0.14171
C         -0.04195         2.84821        -0.36693
C          1.23143         3.59320        -0.26939
C          2.41539         2.93639        -0.47051
C          3.71914         3.67510        -0.59954
C          4.82780         2.99307         0.17228
C          6.10997         3.73209         0.29140
C          7.30927         2.96820         0.52759
C          8.54879         3.72683         0.94267
C          9.82270         2.98628         0.64328
C         -8.53669         5.34502         0.15394
C         -7.40332         5.90558        -0.54012
C         -6.26900         5.09117        -1.12498
C         -4.94598         5.81583        -1.21139
C         -3.60600         5.06535        -1.25304
C         -2.48894         5.75070        -0.47182
C         -1.51756         4.94261         0.34038
C         -0.16044         5.62693         0.57095
C          1.16746         4.95493         0.32926
C          2.47641         5.73425         0.46125
C          3.63146         5.12631        -0.28304
C          4.89742         5.83826        -0.27340
C          6.13773         5.10274         0.08048
C          7.36276         5.86509         0.31455
C          8.52780         5.19334         0.59616
C         -7.26571         7.28102        -0.51416
C         -6.13535         8.09320        -1.13440
C         -4.84806         7.28502        -1.01034
C         -3.60253         7.83861        -0.98238
C         -2.43134         7.14420        -0.43017
C         -1.39649         7.87408         0.24286
C         -0.24682         7.11737         0.90814
C          1.04248         7.88572         0.59859
C          2.33122         7.22652         0.21317
C          3.58712         8.00631         0.30733
C          4.85505         7.36859         0.00269
C          6.11976         8.02830         0.39550
C          7.29735         7.32072         0.40286
C         -6.14657         9.45804        -0.45005
C         -5.14592        10.20934         0.06022
C         -3.73241         9.87234        -0.08642
C         -2.69466        10.01970         0.77074
C         -1.41396         9.28986         0.59802
C         -0.25986         9.95525         0.97266
C          1.07923         9.28843         1.18393
C          2.33311        10.05099         0.82343
C          3.54485         9.39591         0.61838
C          4.82413        10.09978         0.69869
C          6.02208         9.45219         0.65410
C        -10.85685        -0.39772         1.38022
C         -9.73454        -1.24973         0.99874
C         -8.66156        -0.59554         0.18674
C         -7.28811        -1.23671         0.31702
C         -6.29921        -0.73672        -0.71549
C         -5.39490        -1.64035        -1.27439
C         -3.55001        -0.60676        -1.68326
C         -2.51757        -1.40089        -1.23387
C         -1.28612        -0.67927        -0.85786
C         -0.00166        -1.42354        -0.68589
C          1.27984        -0.71713        -0.97374
C          2.52788        -1.40744        -0.63092
C          3.69134        -0.65899        -0.45341
C          4.96027        -1.33884        -0.34833
C          6.11706        -0.60490        -0.08448
C          7.41437        -1.22018        -0.22414
C          8.63012        -0.50951         0.20894
C          9.86245        -1.25438         0.27745
C         11.08748        -0.49456         0.41020
C         -9.71765        -2.59943         1.18584
C         -8.68729        -3.45977         0.47783
C         -7.33565        -2.76122         0.43548
C         -6.19859        -3.58109        -0.05033
C         -5.11853        -2.94107        -0.81104
C         -3.88056        -3.65782        -1.02523
C         -2.60906        -2.84976        -0.91441
C         -1.28299        -3.61283        -0.64125
C          0.02101        -2.90203        -0.72127
C          1.23815        -3.54909        -0.68896
C          2.51498        -2.83998        -0.63038
C          3.73253        -3.53425        -0.55448
C          4.97700        -2.79230        -0.43113
C          6.16726        -3.47929        -0.18876
C          7.44135        -2.79796        -0.27297
C          8.68464        -3.45040         0.18563
C          9.86943        -2.65052         0.29366
C         -8.52619        -4.89590         0.94671
C         -7.45436        -5.66763         0.54813
C         -6.35007        -5.04791        -0.23251
C         -5.07499        -5.79751        -0.56398
C         -3.82728        -5.03011        -0.83354
C         -2.56307        -5.81725        -1.14983
C         -1.29595        -5.05661        -0.80818
C         -0.04173        -5.78519        -0.64036
C          1.27956        -5.02026        -0.55189
C          2.58090        -5.69888        -0.76331
C          3.75378        -4.98516        -0.67784
C          5.11610        -5.67215        -0.74367
C          6.09243        -4.92876         0.21720
C          7.45350        -5.60240         0.33858
C          8.65508        -4.80882         0.44803
C         -7.30830        -7.06300         0.83612
C         -6.13407        -7.77420         0.56617
C         -4.96801        -7.17174        -0.03636
C         -3.73085        -7.83227        -0.02934
C         -2.51867        -7.21243        -0.52581
C         -1.31258        -7.89126        -0.46081
C         -0.06363        -7.25400        -1.05364
C          1.26843        -7.95796        -0.72994
C          2.57056        -7.18507        -0.72097
C          3.77261        -7.82830        -0.16014
C          5.06480        -7.15789        -0.36187
C          6.28957        -7.79891         0.25530
C          7.49515        -6.96220         0.46872
C         -6.03761        -9.14772         1.00169
C         -4.85343        -9.81803         0.96450
C         -3.65074        -9.17849         0.49402
C         -2.43097        -9.83737         0.55335
C         -1.22795        -9.21166         0.11758
C          0.00605        -9.84487         0.32320
C          1.25450        -9.23902         0.01779
C          2.44655        -9.78474         0.48247
C          3.70832        -9.10836         0.37963
C          4.88804        -9.67767         1.00997
C          6.08179        -9.03352         1.02863
O         -6.45168         8.29416        -2.53500
H         -6.39146         7.40469        -2.95705
O         -3.44908         9.19006        -1.28384
O         -4.61781        -1.19205        -2.35672
O         -6.34549        -3.23840         1.40018
O         -0.72235        -0.89546         0.48675
O         -0.51919         7.16457         2.33787
H         -1.20842         6.47568         2.50732
O         -3.17358         5.08598        -2.64738
H         -3.99084         5.04035        -3.19644
O         -0.76664         2.67209         0.91220
O          1.39639         7.73010        -0.80665
O          4.12071         3.55912        -2.00695
H          3.74140         4.31578        -2.50272
O         -2.58890        -5.97531        -2.60574
H         -1.83247        -6.56299        -2.85809
O          5.59889        -5.55756        -2.08644
H          6.04115        -6.41167        -2.30716
O          7.60944        -1.97007        -1.45677
O         -9.21963        -0.07256        -1.06043
O          1.19523         9.16369         2.64330
H          0.47814         8.54876         2.93597
O          1.39818        -0.06888        -2.28883
O         -8.59879         3.42067        -1.22693
O         -9.10010        -3.52219        -0.92470
H        -10.00339        -3.89948        -0.96469
O          4.37029         2.34837         1.40141
O          4.99259         6.82083        -1.37125
O          2.90194         5.65852         1.86230
H          2.14548         5.28627         2.37732
O         -5.76154         5.56633        -2.43486
O          0.60604        -5.53489         0.66429
O         -6.81747        -0.73334         1.59893
H         -6.23247        -1.43204         1.97862
O         -0.22839        -7.28761        -2.49602
H          0.66123        -7.49718        -2.87893
O         -2.13597        -3.08253         0.45899
O         -6.15101        -5.57314        -1.56409
O          8.48896         3.72714         2.43369
H          8.38660         2.79189         2.71548
O         -0.67767         1.36816        -2.38808
O          6.01394         0.44288         2.02885
H          5.49030         1.17214         2.44019
O         -2.10136         4.85913         1.68442
H         -1.59175         4.14723         2.14056
O          0.51049         4.89344         1.65222
O          5.46388        -5.01955         1.52732
H          5.99936        -4.50324         2.16518
O         -8.70011         1.55387         2.12291
H         -9.23658         1.83051         2.89512
O          5.97940        -7.96333        -1.19282
O          2.12090        -7.93528        -1.92805
H         12.04188        -1.04120         0.42361
H         12.02194         1.42246         0.55511
H         10.77429         3.53596         0.71437
H          9.44302         5.76727         0.81032
H          8.23577         7.84851         0.63474
H          6.95454        10.01600         0.80772
H          4.79899        11.18304         0.88852
H          2.33870        11.13680         1.00699
H         -0.35102        10.99548         1.32300
H         -2.80609        10.62109         1.68539
H         -5.40586        11.12050         0.62383
H         -7.16869         9.84506        -0.29597
H         -8.10059         7.85506        -0.07936
H         -9.04302         5.99282         0.88631
H        -10.07509         3.63615         1.78096
H        -11.70623         1.54450         1.47993
H        -11.78101        -0.88722         1.72593
H        -10.54357        -3.08965         1.72663
H         -9.34671        -5.36384         1.51439
H         -8.13065        -7.58469         1.34965
H         -6.94058        -9.63424         1.39858
H         -4.78820       -10.85639         1.32089
H         -2.38061       -10.85455         0.96970
H          0.01550       -10.82054         0.83233
H          2.41359       -10.74524         1.01858
H          4.76692       -10.62359         1.55859
H          6.92018        -9.42916         1.62086
H          8.45560        -7.47134         0.64735
H          9.58751        -5.32639         0.72274
H         10.82630        -3.16877         0.46089
