         600
 CSIRO Nanostructure Databank - Neutral Graphene Oxide Data Set
C         23.02254        27.43959         0.13857
C         23.02148        28.84694        -0.06267
C         22.99822        31.70816        -0.74597
C         23.01742        33.06895        -1.00091
C         23.10728        35.93075        -1.63600
C         23.11171        37.31572        -1.71734
C         23.16031        40.24422        -1.89748
C         23.17738        41.63199        -1.95401
C         23.20433        44.57394        -2.06316
C         23.19088        45.93073        -2.13641
C         25.37500        24.58145         0.19048
C         24.19948        25.27573         0.19678
C         25.41998        27.34422        -0.56334
C         24.17239        26.69603        -0.01436
C         25.45740        28.83755        -0.36024
C         24.19481        29.55237        -0.30272
C         25.42761        31.69353        -0.59068
C         24.19575        30.99535        -0.51564
C         25.44812        33.05494        -0.92002
C         24.23993        33.77010        -1.11210
C         25.50165        35.93496        -1.14858
C         24.27435        35.20940        -1.32536
C         25.49325        37.35982        -1.15121
C         24.27760        38.06798        -1.43713
C         25.42601        40.24348        -0.84680
C         24.27074        39.49974        -1.46504
C         25.53179        41.68510        -1.28021
C         24.36601        42.37936        -1.68005
C         25.64550        44.47452        -1.70189
C         24.41694        43.80605        -1.87210
C         25.74438        45.91367        -1.97796
C         24.43703        46.69796        -2.22231
C         25.63650        48.76412        -1.64112
C         24.46469        48.12811        -1.90510
C         27.91723        23.12859         0.47066
C         27.89142        24.53585         0.26957
C         26.65881        25.25603         0.08639
C         27.91902        27.35929        -0.13600
C         26.68645        26.63850        -0.14069
C         27.92104        28.78851        -0.25988
C         26.66500        29.50378        -0.32456
C         27.96473        31.67099        -0.50467
C         26.67587        30.99863        -0.10076
C         27.98105        33.03939        -0.77963
C         26.74171        33.74393        -1.26863
C         27.94841        35.92477        -0.88692
C         26.73350        35.23060        -1.00661
C         27.94949        37.36053        -0.83313
C         26.72307        38.08038        -0.95518
C         27.94133        40.21002        -0.76221
C         26.73187        39.49797        -0.90722
C         27.96283        41.64956        -0.78948
C         26.75869        42.37024        -1.09861
C         28.03459        44.49585        -1.01218
C         26.81462        43.78260        -1.28267
C         28.06115        45.92688        -1.06094
C         26.91237        46.65416        -1.48236
C         28.08435        48.77230        -1.09327
C         26.88785        48.06018        -1.45887
C         28.17959        50.19163        -1.36596
C         30.35742        23.11585         0.56610
C         29.10427        22.44575         0.61116
C         30.36597        24.52450         0.37901
C         29.13199        25.23741         0.22842
C         30.38645        27.36442         0.01075
C         29.14151        26.65485         0.04498
C         30.38740        28.77849        -0.15750
C         29.15138        29.49636        -0.24771
C         30.41879        31.61816        -0.50703
C         29.17393        30.93108        -0.39825
C         30.41687        33.03143        -0.69295
C         29.21597        33.75428        -0.83082
C         30.39900        35.93883        -0.71718
C         29.21046        35.21271        -0.85536
C         30.40597        37.36156        -0.53891
C         29.16910        38.07510        -0.65140
C         30.39147        40.20817        -0.39081
C         29.17154        39.49717        -0.61252
C         30.39288        41.63299        -0.34395
C         29.17844        42.35109        -0.59380
C         30.40276        44.49704        -0.28889
C         29.20283        43.78476        -0.63804
C         30.38808        45.91163        -0.24328
C         29.23108        46.63242        -0.63621
C         30.39107        48.80867        -0.16019
C         29.20944        48.06724        -0.63846
C         30.45230        50.32019        -0.43880
C         29.31519        50.90177        -1.16329
C         32.82507        20.30936         1.02757
C         31.63521        20.99183         0.88602
C         32.83783        23.10747         0.66649
C         31.60319        22.39970         0.70757
C         32.84119        24.52532         0.46757
C         31.61249        25.23232         0.32827
C         32.85692        27.35120         0.03811
C         31.61513        26.64861         0.13785
C         32.85361        28.74425        -0.18970
C         31.63771        29.47460        -0.25831
C         32.90873        31.60777        -0.38362
C         31.65327        30.89752        -0.42473
C         32.93334        33.03670        -0.42884
C         31.69862        33.73360        -0.81604
C         32.91600        35.94626        -0.38210
C         31.69521        35.25157        -0.81795
C         32.86903        37.34006        -0.13790
C         31.61227        38.06316        -0.28050
C         32.79387        40.21033         0.15976
C         31.60416        39.48373        -0.17508
C         32.79556        41.59510         0.21243
C         31.59977        42.34424        -0.05548
C         32.84620        44.48091         0.23891
C         31.60168        43.76481         0.01410
C         32.86330        45.89821         0.24174
C         31.55840        46.63297         0.38439
C         32.86432        48.78183         0.14741
C         31.66010        48.09533         0.03050
C         32.92845        50.22875        -0.05252
C         31.78193        50.95477        -0.45907
C         33.08685        52.99380        -0.65026
C         31.90145        52.31825        -0.82125
C         35.36740        18.86014         1.33328
C         35.32111        20.28171         1.20456
C         34.07205        20.98595         1.00985
C         35.31624        23.10849         0.79864
C         34.07471        22.39742         0.82519
C         35.32316        24.52187         0.59297
C         34.08688        25.23471         0.41144
C         35.34827        27.34160         0.15739
C         34.09827        26.62985         0.17879
C         35.37517        28.73764        -0.06559
C         34.13963        29.43129        -0.56453
C         35.34672        31.61203        -0.14592
C         34.12769        30.90922        -0.29021
C         35.34301        33.03884        -0.03761
C         34.11248        33.75494        -0.21833
C         35.28799        35.91342         0.16150
C         34.10884        35.21460        -0.16680
C         35.28218        37.32269         0.26513
C         34.05753        38.02462         0.18972
C         35.30793        40.19869         0.41322
C         34.00972        39.45852         0.64619
C         35.31066        41.58230         0.44251
C         34.01811        42.30767         0.74828
C         35.29293        44.46371         0.44649
C         34.05963        43.77353         0.40780
C         35.31222        45.89020         0.43002
C         34.07961        46.61038         0.35681
C         35.32561        48.74072         0.52191
C         34.09676        48.05117         0.36011
C         35.34661        50.18632         0.50667
C         34.16112        50.91532         0.12992
C         35.38716        53.06466         0.24537
C         34.22390        52.33673        -0.09755
C         35.47305        54.49709         0.20136
C         37.80992        18.82477         1.48302
C         36.57100        18.16671         1.41631
C         37.79966        20.31820         1.68773
C         36.53427        21.00436         1.22778
C         37.79302        23.11270         0.93021
C         36.54469        22.40488         0.99774
C         37.79380        24.51266         0.72141
C         36.55750        25.22408         0.57686
C         37.80556        27.35259         0.37756
C         36.57186        26.64092         0.38373
C         37.81089        28.76479         0.22915
C         36.58067        29.45894         0.02705
C         37.79568        31.61360         0.08671
C         36.58484        30.90105        -0.03835
C         37.78476        33.04431         0.17729
C         36.55575        33.73205         0.17470
C         37.79675        35.91540         0.35316
C         36.51564        35.16997         0.60699
C         37.77720        37.32842         0.36144
C         36.53926        38.04842         0.38716
C         37.77975        40.18544         0.34866
C         36.54000        39.46244         0.36952
C         37.78015        41.60839         0.35732
C         36.54325        42.31576         0.40339
C         37.77240        44.45462         0.51414
C         36.53941        43.73854         0.46152
C         37.76111        45.86823         0.67369
C         36.55149        46.58904         0.59968
C         37.78612        48.73616         0.85548
C         36.54983        48.02846         0.68802
C         37.77684        50.16838         0.96684
C         36.53563        50.86824         0.81377
C         37.73806        53.09184         1.21838
C         36.49425        52.34060         0.88349
C         37.93666        54.45949         0.58925
C         36.62634        55.18189         0.44764
C         40.31715        16.04422         1.77118
C         39.11608        16.71054         1.68355
C         40.29068        18.85526         1.44405
C         39.06155        18.12892         1.53994
C         40.28225        20.28382         1.23480
C         39.06314        21.00017         1.23845
C         40.26945        23.08460         0.77961
C         39.04017        22.39035         0.99390
C         40.26087        24.50422         0.63446
C         39.03470        25.22271         0.62973
C         40.27782        27.34925         0.45731
C         39.04820        26.64351         0.49576
C         40.28274        28.79013         0.36600
C         39.04596        29.48900         0.24721
C         40.26610        31.63107         0.22380
C         39.04266        30.90929         0.18050
C         40.25734        33.06740         0.23231
C         39.02611        33.76817         0.25947
C         40.25932        35.91848         0.28625
C         39.01696        35.20430         0.29763
C         40.25358        37.34101         0.32513
C         39.01843        38.04782         0.34415
C         40.25199        40.18213         0.38940
C         39.01097        39.46819         0.35755
C         40.24035        41.59824         0.29706
C         39.02618        42.32895         0.31799
C         40.24724        44.51174         0.37437
C         39.02209        43.75970         0.39635
C         40.28636        45.87815         0.67356
C         39.02230        46.55452         1.13350
C         40.24928        48.74177         0.95256
C         39.02457        48.04378         0.91612
C         40.24135        50.16690         1.12153
C         39.00361        50.85055         1.19661
C         40.25057        53.05309         1.69190
C         38.97750        52.29989         1.51930
C         40.27948        54.52982         1.48562
C         39.10416        55.23265         1.19012
C         40.27690        57.34547         1.49149
C         39.11736        56.65033         1.21428
C         42.79344        16.06874         1.77459
C         41.54840        16.74907         1.68390
C         42.77672        18.86547         1.34900
C         41.53403        18.16252         1.49282
C         42.76616        20.26933         1.07769
C         41.51567        20.96926         1.00830
C         42.73000        23.07080         0.51241
C         41.50454        22.37306         0.77308
C         42.69630        24.46853         0.32023
C         41.49174        25.20206         0.45958
C         42.75145        27.33087         0.35011
C         41.51083        26.63264         0.42224
C         42.78417        28.79371         0.68763
C         41.49585        29.51036         0.37721
C         42.74726        31.64849         0.24382
C         41.50153        30.92126         0.28780
C         42.73603        33.05857         0.20297
C         41.49510        33.78315         0.23887
C         42.73459        35.93043         0.28378
C         41.49431        35.20368         0.26439
C         42.73715        37.33669         0.38503
C         41.49210        38.06527         0.40315
C         42.73547        40.21340         0.84848
C         41.47988        39.46702         0.47604
C         42.77625        41.63120         0.33457
C         41.51428        42.28683         0.03762
C         42.77606        44.51896         0.27217
C         41.50401        43.84057         0.02582
C         42.75610        45.92431         0.49509
C         41.51244        46.61205         0.65636
C         42.73049        48.76032         0.82525
C         41.51271        48.03930         0.84156
C         42.71709        50.19407         1.02518
C         41.50095        50.86057         1.23235
C         42.81905        53.05189         1.56131
C         41.52946        52.27792         1.64464
C         42.77468        54.54142         1.57574
C         41.51973        55.22889         1.61000
C         42.74040        57.36464         1.71512
C         41.51101        56.65687         1.62430
C         43.98249        16.75488         1.67808
C         45.25382        18.88418         1.33815
C         44.01165        18.16375         1.45636
C         45.24057        20.27944         1.04502
C         43.99279        20.96675         0.89322
C         45.21104        23.04007         0.37431
C         43.98543        22.36155         0.55942
C         45.22762        24.43487        -0.08012
C         43.90088        25.19593        -0.09077
C         45.18852        27.34566        -0.06099
C         43.94450        26.65602         0.07795
C         45.19627        28.78730        -0.05812
C         44.00725        29.50676         0.17646
C         45.21381        31.63694        -0.00692
C         43.99497        30.92791         0.14435
C         45.20812        33.07702         0.04367
C         43.97330        33.78474         0.13690
C         45.20683        35.91437         0.18290
C         43.97368        35.20520         0.19635
C         45.21215        37.33954         0.28681
C         43.98484        38.05881         0.40785
C         45.22453        40.18059         0.54381
C         44.00333        39.46652         0.53168
C         45.23114        41.64114         0.51511
C         43.97815        42.34274         0.32367
C         45.23055        44.50165         0.33209
C         43.98789        43.79157         0.26121
C         45.22933        45.93412         0.39796
C         43.99483        46.63905         0.53272
C         45.21571        48.76075         0.57866
C         43.98371        48.05959         0.66208
C         45.18194        50.22966         0.50013
C         43.95332        50.95688         0.90706
C         45.25115        53.10830         0.89243
C         43.99371        52.33217         1.03883
C         45.25698        54.57921         1.29442
C         43.96467        55.26835         1.57425
C         43.93752        56.68515         1.67752
C         47.69886        18.93468         1.39352
C         46.51336        18.24339         1.50628
C         47.72133        20.32560         1.09257
C         46.47506        20.99431         0.91535
C         47.68294        23.10136         0.41796
C         46.45614        22.38933         0.59475
C         47.68470        24.52165         0.14737
C         46.47100        25.21454        -0.00033
C         47.65285        27.35703        -0.30143
C         46.42513        26.63585        -0.14753
C         47.64540        28.78261        -0.48526
C         46.41889        29.49345        -0.30232
C         47.67020        31.60602        -0.35880
C         46.43410        30.91413        -0.22615
C         47.71101        33.01305         0.19807
C         46.42939        33.78926         0.03783
C         47.68886        35.93023         0.13733
C         46.44236        35.19740         0.11881
C         47.69583        37.32710         0.25055
C         46.44689        38.04713         0.34307
C         47.71173        40.14253         0.74358
C         46.43941        39.44915         0.50240
C         47.70371        41.66192         0.77017
C         46.43160        42.36228         0.51849
C         47.71586        44.48841         0.29218
C         46.45921        43.78700         0.37081
C         47.71031        45.93444         0.28005
C         46.46793        46.64476         0.39672
C         47.71070        48.78993         0.56837
C         46.45473        48.07460         0.47800
C         47.74658        50.18670         0.74202
C         46.51941        50.97094         0.58166
C         47.70202        53.01155         1.34878
C         46.52472        52.37737         0.99035
C         47.65304        54.37362         1.84225
C         46.50487        55.09542         1.86886
C         50.23063        20.45362         1.24338
C         48.95281        21.04867         0.91722
C         50.15934        23.09735         0.15142
C         48.91287        22.40593         0.53184
C         50.16814        24.56545         0.03285
C         48.92183        25.24338         0.01705
C         50.10289        27.33162        -0.51612
C         48.88453        26.64577        -0.24000
C         50.04228        28.68263        -0.96650
C         48.84369        29.48485        -0.82520
C         50.04258        31.75254        -0.94027
C         48.83761        30.93737        -0.77662
C         50.10885        33.12048        -0.51325
C         48.92777        33.81236        -0.15975
C         50.15939        35.93933        -0.14722
C         48.93063        35.21134        -0.03388
C         50.17042        37.35940         0.00578
C         48.94750        38.05529         0.23381
C         50.19700        40.17671         0.46425
C         48.97249        39.44879         0.44646
C         50.17624        41.62302         0.54264
C         48.97947        42.35391         0.51967
C         50.19998        44.44236        -0.03144
C         48.93675        43.76183         0.27936
C         50.20163        46.00350         0.00233
C         48.92827        46.66900         0.29006
C         50.19567        48.76450         0.66710
C         48.94794        48.06619         0.52765
C         50.20368        50.16534         0.93797
C         48.96566        50.88101         1.00105
C         50.19354        52.93509         1.48320
C         48.96146        52.28042         1.28573
C         51.41560        21.09979         1.07974
C         52.72602        23.21641         0.38123
C         51.49247        22.38998         0.38135
C         52.66795        24.58835         0.01714
C         51.39041        25.25939        -0.13103
C         52.58110        27.36365        -0.69799
C         51.36131        26.65512        -0.44743
C         52.51560        28.66080        -1.27209
C         51.23647        29.15986        -1.55670
C         52.48229        31.80723        -1.36252
C         51.19473        31.28101        -1.58243
C         52.55395        33.13328        -0.89106
C         51.34529        33.83441        -0.60255
C         52.60216        35.97022        -0.51531
C         51.37253        35.24117        -0.38260
C         52.62937        37.37665        -0.34854
C         51.40172        38.08371        -0.02284
C         52.76870        40.09445         0.50850
C         51.41084        39.46797         0.25249
C         52.77166        41.61841         0.55078
C         51.45871        42.36035         0.58861
C         52.67988        44.49083         0.17861
C         51.47213        43.78206         0.22766
C         52.68506        45.93500         0.23860
C         51.46905        46.66623         0.30736
C         52.66623        48.76544         0.80984
C         51.44124        48.06025         0.60892
C         52.68602        50.15875         0.98619
C         51.43635        50.86922         1.10290
C         51.39639        52.25302         1.38722
C         55.15429        23.31465         0.41336
C         53.97254        22.61389         0.61510
C         55.13859        24.65941        -0.00831
C         53.88523        25.32205        -0.15398
C         55.05392        27.43926        -0.72190
C         53.85511        26.71532        -0.52315
C         55.03918        28.83103        -1.11938
C         53.74620        29.46012        -1.52959
C         54.96224        31.68651        -1.07948
C         53.70655        31.00080        -1.60419
C         54.97788        33.17379        -1.30451
C         53.79621        33.86127        -0.98202
C         54.99888        35.98485        -1.15471
C         53.79948        35.27580        -0.86993
C         55.01195        37.41225        -0.98931
C         53.84557        38.07834        -0.57078
C         55.19882        40.17833        -0.20007
C         53.80811        39.59270        -0.49995
C         55.15624        41.69202        -0.23770
C         53.98049        42.36170         0.11365
C         55.15562        44.51664        -0.00405
C         53.94224        43.78901         0.12544
C         55.15950        45.93958         0.20479
C         53.93548        46.60491         0.40568
C         55.25701        48.79087         0.79384
C         53.92666        48.00999         0.83270
C         55.13084        50.24742         0.67912
C         53.93832        50.87080         0.87519
C         57.62667        24.71450        -0.30567
C         56.37245        25.37241        -0.29727
C         57.53926        27.46793        -0.80316
C         56.32511        26.76339        -0.59011
C         57.54222        28.96818        -0.79514
C         56.22238        29.56097        -1.18155
C         57.39100        31.66130        -1.75158
C         56.22885        30.97568        -1.44061
C         57.30991        33.09407        -2.15509
C         56.13022        33.87819        -1.70297
C         57.28692        36.07173        -2.16237
C         56.12865        35.28933        -1.66988
C         57.36024        37.51191        -1.81118
C         56.22587        38.13707        -1.30211
C         57.45115        40.38076        -1.46925
C         56.19299        39.60153        -1.18521
C         57.54133        41.76427        -0.96373
C         56.34891        42.42176        -0.51664
C         57.60116        44.54967        -0.43021
C         56.36903        43.82929        -0.30243
C         57.61028        45.96613        -0.21524
C         56.41110        46.66614         0.13365
C         57.67728        48.76357         0.12875
C         56.46072        48.06977         0.32101
C         58.79562        25.39508        -0.60036
C         59.97640        27.52039        -1.17200
C         58.76986        26.78989        -0.83544
C         59.94524        28.84373        -1.51780
C         58.73306        29.61417        -1.47938
C         59.84747        31.73499        -2.17596
C         58.66166        30.96257        -1.84443
C         59.83283        33.06598        -2.43223
C         58.56944        33.82345        -2.56183
C         59.80669        36.11282        -2.46008
C         58.55669        35.33885        -2.57904
C         59.79882        37.45537        -2.26699
C         58.59809        38.23039        -2.00911
C         59.88639        40.37811        -1.79934
C         58.67087        39.62225        -1.78568
C         59.92180        41.71568        -1.49067
C         58.75876        42.45097        -1.05898
C         60.01432        44.61283        -0.86114
C         58.80313        43.86602        -0.76466
C         60.02879        45.97357        -0.67208
C         58.83220        46.68318        -0.35886
C         58.84090        48.09046        -0.19354
O         51.09496        30.20636        -2.46900
O         44.49111        24.68395        -1.33075
O         41.48376        43.05949        -1.20785
O         53.82076        30.20703        -2.79901
O         39.46227        52.63751         2.86872
O         56.32987        40.27615        -2.46591
O         36.74868        52.95091         2.25424
O         57.63068        35.85475        -3.57936
O         45.82464        50.75260        -0.70595
O         42.35197        52.48952         2.84703
O         54.72521        48.24890         2.04396
O         47.71648        40.88486         2.01919
O         30.09638        49.79747         0.88476
O         50.85709        22.40070        -0.94231
O         45.29947        54.17502        -0.12088
O         52.25095        42.09020         1.83955
O         57.66579        33.26672        -3.57206
O         31.84749        34.49441        -2.07372
O         50.18633        45.24637        -1.24942
O         25.31536        46.30215        -3.32315
O         42.90749        28.84071         2.16755
H         42.96300        29.78708         2.42149
O         25.09417        40.30857         0.60655
H         24.24175        40.78925         0.68067
O         39.02071        46.39093         2.60945
H         38.22195        46.84603         2.95276
O         31.25462        46.62191         1.83479
H         31.96602        47.12231         2.28865
O         36.39401        35.11646         2.08933
H         37.18192        34.63683         2.42453
O         42.68632        40.31264         2.32671
H         43.54404        40.68858         2.62085
O         34.21720        29.31694        -2.04407
H         33.44248        29.79438        -2.41163
O         47.82575        32.78985         1.66534
H         47.87290        33.67425         2.08826
O         53.14715        39.64149         1.84025
H         52.70595        40.26293         2.46789
O         54.83719        31.51953         0.38258
H         55.73231        31.59106         0.77741
O         57.72642        29.33814         0.64143
H         58.54411        28.88723         0.94456
O         38.39444        54.14274        -0.77732
H         38.48886        54.98793        -1.26571
O         55.67799        39.74705         1.09286
H         54.90322        39.73071         1.71196
O         26.64348        31.16469         1.36875
H         25.82784        30.72603         1.69282
O         33.85219        39.40831         2.12126
H         34.57667        38.84675         2.47331
O         53.38154        40.09887        -1.78531
H         54.11667        39.98299        -2.42751
O         33.88811        42.25576         2.21240
H         33.80795        41.29759         2.45243
O         25.34552        27.14926        -2.03077
H         25.29189        26.18205        -2.18666
O         37.79173        20.48474         3.17122
H         36.97966        20.04235         3.50022
O         26.82373        33.63086        -2.74223
H         27.65654        34.06754        -3.02318
H         22.08601        26.94248         0.43291
H         22.06520        29.37890         0.03055
H         22.03110        31.18875        -0.71386
H         22.06198        33.59388        -1.13287
H         22.16496        35.39993        -1.82635
H         22.17194        37.82758        -1.96317
H         22.25376        39.72752        -2.24246
H         22.27837        42.14789        -2.31432
H         22.24109        44.04655        -2.03133
H         22.23635        46.47760        -2.11707
H         25.34791        23.49714         0.35821
H         23.25145        24.75371         0.39653
H         25.61053        49.84203        -1.42931
H         23.51247        48.67765        -1.86388
H         26.97985        22.55881         0.50952
H         27.34313        50.67823        -1.88591
H         29.06590        21.35869         0.75908
H         29.37979        51.93091        -1.54212
H         32.78961        19.22092         1.16668
H         30.69967        20.41828         0.91503
H         33.13704        54.06130        -0.90029
H         31.02618        52.86672        -1.19283
H         34.43895        18.27663         1.28761
H         34.56244        55.07470        -0.01480
H         36.53265        17.06852         1.39241
H         36.60946        56.27999         0.40570
H         40.33495        14.95341         1.90889
H         38.18414        16.13437         1.75896
H         40.26738        58.44398         1.53256
H         38.19155        57.21145         1.02878
H         42.79578        14.97968         1.92671
H         42.72537        58.46304         1.75712
H         44.92247        16.19294         1.75654
H         44.88315        57.24441         1.68734
H         48.64153        18.38602         1.52084
H         46.55607        17.17001         1.73351
H         48.55824        54.80979         2.28573
H         46.48649        56.06859         2.38055
H         50.23957        19.47121         1.73578
H         50.21813        54.01145         1.69729
H         52.33382        20.65025         1.48384
H         52.32868        52.80977         1.54815
H         56.10641        22.79140         0.56953
H         54.02534        21.55700         0.90941
H         56.01504        50.84892         0.42557
H         53.91231        51.96773         0.81938
H         57.68425        23.63676        -0.10392
H         57.71336        49.85164         0.27494
H         59.75439        24.85817        -0.63279
H         60.92346        26.96366        -1.21961
H         60.87565        29.31772        -1.86152
H         60.82209        31.22793        -2.14464
H         60.78620        33.58843        -2.59800
H         60.76960        35.59303        -2.56724
H         60.76592        37.97657        -2.24950
H         60.82717        39.88806        -2.08506
H         60.88798        42.23381        -1.55533
H         60.95510        44.10099        -1.10346
H         60.96967        46.53478        -0.76625
H         59.78495        48.64146        -0.30964
