         320
 CSIRO Nanostructure Databank - Neutral Graphene Oxide Data Set
C         30.32859        31.72326        -1.41493
C         30.37204        32.92638        -1.11316
C         30.27540        35.98580         0.06364
C         30.45439        37.18377         0.33839
C         30.50293        40.41735         0.92497
C         30.39755        41.64924         1.06936
C         32.78810        28.90160        -1.79897
C         31.69518        29.47495        -1.81210
C         32.71865        31.50240        -0.96581
C         31.52216        30.96885        -1.91306
C         32.78838        33.05630        -0.89068
C         31.39427        33.70174        -0.33997
C         32.68914        35.85865         0.03707
C         31.42784        35.21004        -0.59310
C         32.81761        37.40150        -0.06713
C         31.50149        38.14409         0.34748
C         32.82207        40.26793         0.30698
C         31.51898        39.47801         0.59976
C         32.82850        41.76240         0.62572
C         31.44987        42.51888         0.40006
C         32.78397        44.48183         0.96895
C         31.69855        43.90880         0.88682
C         35.60390        27.30576        -1.42754
C         35.46244        28.71247        -1.95678
C         34.15116        29.47380        -1.84457
C         35.32393        31.66633        -1.04424
C         34.08210        30.93543        -1.43215
C         35.27699        32.93594        -0.54881
C         33.97973        33.51475         0.02770
C         35.25196        35.78645         0.78402
C         33.94306        35.05717         0.30108
C         35.26872        37.30789         0.59926
C         33.91977        37.94519         0.87767
C         35.28576        40.20039         1.05920
C         33.98188        39.48569         0.91323
C         35.28599        41.70752         1.08207
C         34.00772        42.42341         0.77218
C         35.35231        44.59954         1.09000
C         34.12146        43.94993         0.54652
C         35.56961        45.99015         1.20952
C         38.03531        27.16789        -1.14555
C         36.67915        26.68210        -1.39948
C         37.99631        28.73135        -1.35859
C         36.62308        29.44517        -1.09770
C         37.84871        31.67990        -0.84141
C         36.63771        30.97918        -1.43958
C         37.83030        33.02954        -0.63117
C         36.53887        33.67030        -0.26157
C         37.79814        35.90347         0.50346
C         36.53260        35.05240         0.33166
C         37.70301        37.37381         0.07447
C         36.46503        38.05822         0.61106
C         37.87472        40.15725         1.09493
C         36.53587        39.45658         0.84774
C         37.87313        41.69514         0.98714
C         36.59453        42.43294         1.17735
C         37.81838        44.58388         1.35198
C         36.62380        43.92380         1.12010
C         37.95820        46.08770         1.60260
C         36.55446        46.65366         1.60342
C         40.15763        24.64713         0.82802
C         39.27504        25.13946         0.11898
C         39.95845        27.44463         0.53425
C         39.16350        26.50325        -0.41882
C         40.24181        28.76049        -0.16362
C         39.16622        29.41276        -0.69506
C         40.32940        31.62429        -0.79707
C         39.06051        30.88406        -0.39381
C         40.27603        33.03407        -0.10915
C         39.11602        33.85864        -0.72570
C         40.29836        35.85668         0.76166
C         39.12923        35.34222        -0.17932
C         40.24199        37.38990         0.49847
C         39.05305        38.05707         0.35575
C         40.35695        40.24625         0.51720
C         39.02147        39.57039         0.24458
C         40.34867        41.67977         0.92431
C         39.04307        42.39555         0.97650
C         40.31094        44.63970         0.82793
C         39.12886        43.84794         1.43437
C         40.21633        45.95415         0.48812
C         38.80171        46.63398         0.43620
C         40.05973        48.80752         0.37012
C         39.06713        48.09067         0.50346
C         42.48347        24.90012         1.98819
C         41.03059        25.12544         1.89624
C         42.40118        27.71285         1.62216
C         41.14966        26.91204         1.36217
C         42.52388        29.15535         1.06379
C         41.64178        29.35044        -0.19467
C         42.92710        31.60823        -0.55960
C         41.64210        30.84002        -0.61138
C         42.88251        33.15326        -0.71435
C         41.64560        33.73782        -0.02539
C         42.90671        35.97061         0.61017
C         41.64071        35.15287         0.46247
C         42.82840        37.39609         0.15017
C         41.50712        38.11693         0.15597
C         42.77387        40.36468        -0.17883
C         41.51557        39.59631         0.23310
C         42.94387        41.60882         0.73459
C         41.64899        42.43204         1.01901
C         42.73105        44.53914         0.01873
C         41.69477        44.00211         1.04564
C         42.69738        46.06384        -0.18862
C         41.48628        46.82588         0.40931
C         42.65376        48.88900        -0.14516
C         41.29529        48.26114        -0.28843
C         43.41658        25.63188         2.31647
C         44.92050        27.38623         1.29218
C         43.73405        27.09208         2.21044
C         45.09081        28.91565         1.06740
C         43.95280        29.60123         0.74299
C         45.26563        31.71513         0.53595
C         44.18216        30.86480        -0.08576
C         45.30830        33.18392         0.28463
C         44.11566        33.85533        -0.21598
C         45.41967        35.93266         0.47128
C         44.13155        35.34671        -0.16174
C         45.35016        37.45688         0.37868
C         44.12892        38.10411         0.27742
C         45.36831        40.26369        -0.04687
C         44.07724        39.53305        -0.10283
C         45.29958        41.75322        -0.25215
C         44.14413        42.48968         0.34214
C         45.48917        44.75217         0.01345
C         44.14956        43.99068         0.31513
C         45.28917        46.20793        -0.51759
C         43.96779        46.84276        -0.48877
C         43.71468        48.27998        -0.28539
C         47.34864        27.47934         1.53756
C         46.27050        26.91607         1.76090
C         47.68537        28.85548         1.28882
C         46.42164        29.58562         0.99271
C         47.84791        31.62934         0.54597
C         46.51290        30.93488         0.74831
C         47.77128        33.18198         0.74658
C         46.66043        33.79076        -0.14926
C         47.90891        36.01984         0.34617
C         46.67309        35.36153        -0.21316
C         47.84853        37.48695         0.40912
C         46.62836        38.15791         0.39758
C         47.85610        40.45283         0.19720
C         46.58945        39.66001         0.60915
C         47.81047        41.83815        -0.40635
C         46.49422        42.49235        -0.74299
C         47.76433        44.65284        -1.28467
C         46.38198        44.00067        -1.00695
C         47.63070        46.03079        -1.25560
C         46.48312        46.60630        -1.01669
C         50.23046        29.00038         1.48957
C         48.89547        29.49053         1.37885
C         50.28242        31.65042         0.83466
C         48.98176        31.03191         1.39048
C         50.29272        33.15718         0.82103
C         49.13418        33.86584         0.61196
C         50.33811        36.14135         0.84138
C         49.07537        35.32998         0.56898
C         50.28868        37.50754         0.16603
C         49.10983        38.20249         0.23507
C         49.92700        40.09513        -1.23810
C         49.20008        39.71575         0.06070
C         49.94661        41.38518        -1.69932
C         49.12249        42.43973        -0.95028
C         49.83421        43.92033        -2.62702
C         48.83510        43.80039        -1.70971
C         51.37237        29.51400         1.47537
C         52.70717        31.75752         0.92715
C         51.59233        30.82291         0.82355
C         52.71725        32.98468         0.74287
C         51.61477        33.92858         1.12896
C         52.29207        35.90978        -0.48729
C         51.55593        35.27094         0.47870
C         52.26586        36.96698        -1.19278
C         51.44074        38.15070        -0.65395
C         51.65534        39.56974        -2.81578
C         50.76228        38.91960        -1.81725
C         51.65633        40.73278        -3.24219
C         50.84783        41.83373        -2.81119
C         50.73840        43.16553        -3.16048
O         43.05325        46.38639        -1.56520
O         39.21562        26.65570        -1.84495
O         35.85831        42.07716         2.40510
O         34.41501        39.84929         2.24586
O         44.93804        39.64178        -1.29989
O         42.11265        37.60483        -1.10062
O         41.31053        27.64002         2.61794
O         44.38138        43.29110         1.56665
O         32.93124        35.29380         1.33556
O         46.61396        35.81031        -1.62615
O         36.67107        33.87432         1.21604
O         47.94325        41.64647         1.03739
O         34.12029        30.53583        -2.84449
O         37.48985        37.37257        -1.42245
O         42.46982        30.99382        -1.80810
O         50.82331        31.01066        -0.36897
O         45.58787        41.88725        -1.70016
O         45.02598        32.61017         1.65658
O         41.05533        41.88137         2.23245
O         41.89421        34.00401         1.37980
O         42.70128        33.45029        -2.13401
H         43.45198        33.04623        -2.62077
O         37.87729        36.02492         1.92575
H         37.74108        35.13843         2.32424
O         38.16587        46.28949        -0.78373
H         38.64103        46.73076        -1.51885
O         38.93208        27.74678         1.52150
H         39.38824        28.06071         2.33539
O         50.40034        36.42410         2.25803
H         50.49302        35.56148         2.73079
O         41.02380        48.08410        -1.65150
H         41.13669        48.93354        -2.12426
O         36.31905        29.36241         0.29803
H         36.22318        28.41734         0.55016
O         36.58854        38.44119        -1.80941
H         37.19373        39.23582        -1.80054
O         43.34898        41.00093         1.97526
H         43.48576        41.71481         2.63560
O         51.64570        34.07754         2.56962
H         52.52704        34.42733         2.81976
O         48.87174        31.42224         2.77466
H         49.56331        30.95214         3.28749
O         35.24101        35.65067         2.22428
H         35.37307        34.69580         2.42259
O         42.31884        28.58587        -1.22110
H         41.87298        28.75492        -2.07820
O         33.01101        40.24937        -1.12261
H         32.37321        40.88686        -1.51779
O         45.67446        44.18681        -2.25029
H         46.07535        43.61950        -2.94136
O         40.14515        35.65670         2.16346
H         40.20676        34.68649         2.32339
O         40.18722        31.71413        -2.23261
H         41.06874        31.98553        -2.59254
O         38.72569        39.95275        -1.13637
H         39.41868        39.55540        -1.70829
O         38.20515        39.88593         2.47835
H         37.45702        40.19753         3.03326
O         31.75986        31.35789        -3.24366
H         31.08756        30.95264        -3.82901
O         33.47431        37.55780         2.18889
H         34.08253        37.96957         2.84208
O         46.78791        33.30299        -1.49910
H         46.71153        34.07161        -2.11451
O         39.43700        36.13006        -1.34180
H         38.97378        35.76195        -2.12698
O         41.82854        47.12387         1.77021
H         41.93209        46.27122         2.26223
O         38.30517        28.93264        -2.76135
H         38.88222        28.18854        -3.04946
O         44.83182        30.39437        -1.30192
H         44.16127        29.86005        -1.78758
O         39.83662        32.91020         1.25299
H         40.46301        32.33874         1.74679
O         48.23689        31.29808        -0.79777
H         47.65212        31.78532        -1.42805
O         42.03862        30.06978         2.06776
H         41.46341        29.55547         2.68096
O         33.15042        37.69536        -1.41709
H         32.52748        37.21285        -2.00563
O         38.87097        30.78041         1.05367
H         37.97834        30.38179         1.18647
O         50.04985        40.15717         1.13860
H         50.12947        41.14148         1.06561
O         46.22136        44.89038         1.23022
H         45.79321        44.33501         1.92404
O         42.57421        40.77849        -1.53414
H         43.37321        40.50829        -2.04803
O         31.23075        33.42504         1.02896
H         31.07196        32.45991         1.12801
O         42.11839        44.42068         2.35920
H         41.37946        44.20064         2.97705
O         33.08532        33.56862        -2.18257
H         32.67435        32.98941        -2.86726
O         49.86317        38.00483        -2.46455
H         49.66704        38.34674        -3.36207
O         43.97423        27.68635         3.46505
H         43.16954        27.59592         4.01644
O         31.39085        35.49228        -1.97901
H         30.65069        34.98718        -2.37922
O         34.21617        44.10540        -0.88443
H         34.36840        45.05397        -1.08259
O         35.81481        28.67232        -3.31896
H         35.35794        29.41374        -3.77820
O         52.24940        39.03159         0.07148
H         52.50289        38.61929         0.92166
O         31.20123        42.52665        -0.98702
H         30.34250        42.96565        -1.15788
O         43.12495        36.07672         2.03200
H         42.84011        35.22544         2.43819
O         32.42913        30.97811         0.33155
H         33.06139        31.39818         0.97432
O         38.65843        46.35632         2.79122
H         38.28803        45.81119         3.51545
O         44.61523        26.80696         0.03361
H         45.37441        26.93620        -0.57178
O         47.95333        35.70549        -2.20200
H         48.32267        36.62595        -2.13351
O         39.43672        43.79115         2.87462
H         39.83775        42.90157         3.05460
O         46.41514        39.86369         2.03029
H         47.25845        39.64833         2.48135
O         42.33959        43.94328        -1.23079
H         42.68899        44.51573        -1.95504
O         45.60597        35.55078         1.83436
H         44.83511        35.87579         2.35789
O         47.37371        33.49118         2.08699
H         47.90369        32.94936         2.71527
O         33.86071        32.91186         1.33508
H         33.22750        33.48552         1.83973
O         36.77462        31.14481        -2.86441
H         37.47719        30.52351        -3.17606
O         40.40846        25.10393         3.11672
H         41.02826        25.39453         3.81481
O         39.24890        33.99042        -2.15550
H         39.18218        33.08993        -2.55876
O         49.94382        42.81822         0.16981
H         49.41570        43.38782         0.76958
O         44.06455        35.85549        -1.51515
H         43.34909        35.37437        -1.99106
