         300
 CSIRO Nanostructure Databank - Neutral Graphene Oxide Data Set
C         30.92436        31.43640        -1.92541
C         31.04509        32.67338        -2.03421
C         30.74420        36.04281        -0.65271
C         30.64427        37.34348        -0.31198
C         30.65558        40.52061         0.12191
C         30.68476        41.76231         0.09126
C         32.77916        28.75833        -0.44773
C         31.71677        29.34738        -0.62374
C         32.84063        31.49919        -0.43508
C         31.39212        30.78072        -0.62101
C         32.82365        33.00361        -0.49454
C         31.62869        33.66131        -1.18290
C         33.21824        36.14696        -0.15957
C         30.99146        34.79814        -0.77415
C         33.01037        37.54317        -0.78756
C         31.72484        38.16998        -0.23741
C         33.07833        40.42226        -0.05983
C         31.77757        39.58803         0.17434
C         33.01336        41.89810        -0.26238
C         31.81093        42.60692        -0.18710
C         33.00973        44.62869        -0.76077
C         31.97151        44.00502        -0.49623
C         35.42087        27.16904         0.01109
C         35.31133        28.62602        -0.37923
C         34.05014        29.31067         0.12404
C         35.34570        31.53223        -0.62504
C         34.00994        30.83100        -0.26137
C         35.43611        33.00888        -0.08861
C         34.12237        33.77430        -0.33874
C         35.48385        35.94024        -1.09864
C         34.11560        35.17519        -0.96504
C         35.50311        37.45146        -0.97796
C         34.33320        38.21761        -0.33260
C         35.63050        40.41018        -0.07268
C         34.32551        39.74640        -0.63525
C         35.64130        41.92607        -0.34040
C         34.31086        42.65021        -0.44630
C         35.58716        44.80887        -1.03425
C         34.30132        44.01232        -1.24557
C         35.71028        46.12404        -0.39415
C         37.86118        27.02295         0.36077
C         36.55876        26.62801         0.10109
C         37.85673        28.55509         0.64036
C         36.57558        29.33214         0.21672
C         37.92821        31.46116        -0.47546
C         36.60143        30.80513        -0.07874
C         37.96212        32.95726        -0.24129
C         36.71820        33.67590        -0.63514
C         38.16873        35.86073        -0.99162
C         36.77546        35.13306        -1.03967
C         38.09573        37.39042        -0.81012
C         36.82274        38.16928        -0.89972
C         38.12084        40.42361        -0.88419
C         36.81835        39.70233        -0.71799
C         38.20622        41.94984        -0.96293
C         36.87041        42.60283        -0.76072
C         38.11085        44.74743        -0.24654
C         36.89424        44.06726        -0.80731
C         37.93060        46.04575         0.50648
C         36.71541        46.72644         0.00976
C         40.17983        24.45171         1.77360
C         39.04614        25.03194         1.61197
C         40.35799        26.98956         0.87652
C         39.03818        26.23240         0.73365
C         40.40276        28.47140         0.53979
C         39.15335        29.22050         0.18150
C         40.41476        31.50716         0.44053
C         39.20157        30.73894        -0.00131
C         40.42410        33.00931         0.44979
C         39.29684        33.66983        -0.34264
C         40.38570        35.92572         0.36242
C         39.07086        35.16106         0.06509
C         40.43781        37.43114         0.30269
C         39.15739        38.21073        -0.06267
C         40.60361        40.29194        -0.01544
C         39.42669        39.59574        -0.82591
C         40.59914        41.84968        -0.01621
C         39.34851        42.63649        -0.23612
C         40.57980        44.93788         0.10674
C         39.32385        44.12899        -0.22490
C         40.42012        45.69233         1.45750
C         39.02176        46.51458         1.39784
C         40.24009        48.50872         2.22776
C         39.23999        47.86413         1.90349
C         42.78601        24.45468         1.90669
C         41.47346        24.91967         1.95178
C         42.81124        27.06739         1.19614
C         41.50008        26.48892         1.77274
C         42.84885        28.51908         1.25837
C         41.56000        29.24854         1.12007
C         42.81240        31.50986         1.28664
C         41.51805        30.75238         1.14003
C         42.81772        33.00350         1.13769
C         41.56963        33.70120         0.69653
C         42.85567        35.89714         1.01533
C         41.71404        35.16142         0.26590
C         42.98162        37.39566         0.85419
C         41.78595        38.17258         0.38449
C         43.22630        40.25491         0.08371
C         41.94590        39.51332        -0.36406
C         43.17829        41.78149         0.11118
C         41.91005        42.57861        -0.09054
C         43.17778        44.79037         0.53349
C         41.91003        44.10512         0.06206
C         43.03647        46.22547         1.11902
C         41.67111        46.54307         1.81364
C         42.89804        48.61693         2.40944
C         41.58213        47.96502         2.40969
C         43.93874        24.99345         1.87894
C         45.43848        27.04058         1.20949
C         44.16060        26.25550         1.18026
C         45.42004        28.56944         1.04457
C         44.08095        29.24294         0.89656
C         45.34587        31.52971         0.69668
C         44.05413        30.75065         0.88924
C         45.34698        32.90954         1.35328
C         44.14800        33.70311         0.80287
C         45.42925        35.83958         1.44673
C         44.11833        35.13297         1.33024
C         45.34292        37.33992         1.76723
C         44.33858        37.99804         0.80849
C         45.44347        40.22377         1.39112
C         44.40282        39.46510         0.61259
C         45.40130        41.71514         1.40987
C         44.42574        42.49820         0.58405
C         45.60989        44.61224         1.50058
C         44.46001        43.99469         0.76244
C         45.58585        46.17209         1.47038
C         44.25365        46.58909         2.07845
C         43.99060        48.04907         2.34714
C         47.75116        27.17745         0.41615
C         46.75651        26.54748         0.78340
C         48.03482        28.61730         0.43138
C         46.69706        29.34274         0.68415
C         47.92340        31.63527         0.10525
C         46.61449        30.81844         0.32442
C         47.95699        32.97458         0.86638
C         46.67403        33.66741         1.22808
C         47.87468        35.88449         1.16553
C         46.60899        35.15874         1.26879
C         47.88664        37.20190         1.47930
C         46.71834        38.05004         1.78271
C         47.95969        40.31723         0.89486
C         46.80228        39.55703         1.60741
C         47.79068        41.80474         0.72474
C         46.73774        42.36556         1.77368
C         47.89732        44.46393         2.63387
C         46.67841        43.87903         1.91149
C         47.69339        45.92902         2.77395
C         46.77378        46.57358         2.26261
C         50.52712        28.92216        -0.40988
C         49.07836        29.37702        -0.36791
C         50.32631        31.68200        -0.48488
C         49.25055        30.84855         0.25468
C         50.37012        33.13766        -0.07698
C         49.21658        33.77460         0.61972
C         49.56169        35.81123        -0.79303
C         49.20473        35.31261         0.66503
C         49.35099        37.31771        -1.05465
C         49.06188        38.20781        -0.04193
C         48.56812        40.16236        -1.61377
C         48.67607        39.61779        -0.23277
C         48.03140        41.55358        -1.77797
C         47.94040        42.37519        -0.67766
C         47.85490        44.26104        -2.24254
C         47.95891        43.89145        -0.81285
C         51.52317        29.58735        -0.71631
C         52.70135        32.01570        -1.00847
C         51.61139        31.03002        -1.00743
C         52.46293        33.23841        -1.20097
C         51.35106        34.04581        -0.77258
C         49.89403        36.25456        -4.46110
C         50.97857        35.32566        -1.10568
C         49.68599        37.01216        -3.47694
C         49.31398        37.80647        -2.41639
C         48.96236        39.96299        -3.91125
C         48.58819        39.10799        -2.73769
C         48.68994        41.14571        -4.11186
C         47.81937        42.05082        -3.28466
C         48.06510        43.51736        -3.21192
O         36.33972        30.33643         1.25766
O         48.89407        41.26086         1.50207
O         44.84216        40.94615         2.51152
O         50.51330        31.39385        -1.90143
O         43.35933        26.42667        -0.00699
O         43.11145        35.39675         2.34604
O         40.24876        36.70664         1.56848
O         49.81125        40.30302        -0.86108
O         40.10405        26.17479        -0.27798
O         36.74894        34.08293        -2.05293
O         45.01323        43.33738        -0.44161
O         47.71997        29.16137         1.71574
O         35.03566        42.70243         0.81313
O         44.35227        39.89378        -0.80101
O         45.70825        31.31601        -0.69917
O         45.53288        27.91191         2.35290
O         49.10566        37.90281         1.30534
O         37.19401        40.19022        -2.04225
O         40.27840        31.05113        -0.94443
O         42.79242        32.37000         2.44782
O         33.20206        33.60338         0.77516
O         32.69129        39.92593         1.26366
O         42.82197        44.73715        -0.87270
O         39.97425        28.61642        -0.84743
O         35.36704        36.81776        -2.27060
O         48.83054        43.80353         3.00383
O         33.00419        35.99795         1.02388
O         37.93265        45.75609         1.94412
O         42.72258        42.18619        -1.22447
O         48.13446        44.65053         0.11013
O         47.58102        33.08205         2.25534
O         36.49120        44.67294        -2.15316
O         43.81120        29.98624        -0.33777
O         37.65443        37.91383        -2.08542
O         42.17374        38.23052         1.78012
O         39.73851        42.26002         1.11456
O         41.12480        30.01672         2.32451
O         46.94961        38.96500         2.91135
O         41.66146        46.78757         3.26539
O         50.34414        33.25118         1.39335
O         50.25518        35.74701         1.52229
H         50.63065        34.94397         1.96179
O         32.93563        37.51999        -2.21506
H         33.18805        38.41380        -2.55072
O         35.73428        40.22834         1.33523
H         35.27003        40.98043         1.77141
O         37.93536        31.30525        -1.92427
H         38.84687        31.54244        -2.22311
O         39.82154        39.38593        -2.16878
H         39.00633        39.18221        -2.68411
O         42.12461        39.20985        -1.73493
H         42.46187        40.00689        -2.19667
O         44.14196        45.87115         3.28666
H         43.34585        46.19857         3.77377
O         49.60671        30.76063         1.62111
H         50.43821        30.25031         1.71046
O         33.60232        34.95978        -2.28293
H         33.61615        35.82467        -2.76199
O         35.64543        32.96976         1.32507
H         34.76557        32.97203         1.76762
O         46.47697        41.80490        -3.59035
H         46.25656        42.18849        -4.46343
O         38.78220        35.71836        -2.28293
H         38.25506        36.26731        -2.90941
O         38.30339        35.11771         1.27522
H         38.69346        35.76676         1.91028
O         38.46557        38.51042         1.16822
H         39.11980        38.51826         1.90369
O         41.31200        27.07840         3.05333
H         42.07258        26.87544         3.63637
O         47.23188        38.68530        -2.90882
H         47.18404        38.07875        -3.67919
O         47.08316        41.82797         3.03949
H         48.00901        42.09831         3.25105
O         38.61570        42.23680        -2.34079
H         37.95542        41.82253        -2.93958
O         45.68252        46.58820         0.11805
H         46.57103        46.33533        -0.21934
O         40.45595        39.97304         1.37745
H         39.87514        40.65004         1.80013
O         44.34521        33.74693        -0.61934
H         43.58558        34.22569        -1.04466
O         37.93919        28.61359         2.07882
H         37.03860        28.71606         2.45610
O         47.94744        32.05543        -1.27359
H         47.01448        32.11216        -1.59614
O         35.35527        28.75122        -1.79615
H         35.99357        28.10786        -2.16964
O         34.27973        39.94926        -2.06053
H         35.17350        39.80737        -2.44761
O         45.14882        32.68809         2.75241
H         46.03166        32.59946         3.18001
O         39.78750        33.54930        -1.70912
H         39.08513        33.89334        -2.31727
O         51.79899        36.18795        -1.72176
H         52.64084        35.74150        -1.95049
O         43.04280        47.12028        -0.00025
H         43.93429        47.08019        -0.42260
O         34.18007        43.68249        -2.61078
H         34.80574        44.23426        -3.13145
O         42.06438        35.13349        -1.14733
H         41.36056        34.60750        -1.61736
O         48.65348        35.09636        -1.65029
H         48.94387        35.20734        -2.58680
O         34.02002        29.19196         1.53139
H         33.16206        29.52578         1.86540
O         40.63353        45.95057        -0.90330
H         41.58334        46.11375        -1.13452
O         44.78824        37.44539         3.08735
H         45.10566        38.28734         3.48738
O         30.51365        31.11306         0.39961
H         30.30338        32.06911         0.37580
O         34.54257        38.01211         1.06219
H         33.87200        38.53131         1.57007
O         35.35081        31.60094        -2.04491
H         35.37970        30.68506        -2.40518
O         40.28867        44.70976         2.47198
H         40.22638        45.16499         3.33999
O         48.60473        29.45501        -1.68595
H         49.20419        30.05703        -2.19495
