         470
 CSIRO Nanostructure Databank - Neutral Graphene Oxide Data Set
C         37.41710        49.96071         0.62223
C         36.32224        50.57860         0.02876
C         37.67684        52.52457        -0.43724
C         36.45428        51.86417        -0.50882
C         39.69819        48.83684         2.07241
C         39.82897        49.95592         1.28580
C         38.66522        50.61435         0.70066
C         40.07923        52.62802         0.27298
C         38.79635        51.92262         0.17310
C         40.13643        54.00695        -0.01089
C         42.08794        48.68702         2.52756
C         40.81589        48.21627         2.70241
C         42.38918        49.84017         1.63736
C         41.17322        50.51914         1.01071
C         42.51794        52.63658         0.66786
C         41.26699        51.95490         0.64973
C         42.54892        53.99204         0.23848
C         41.35084        54.66920        -0.04019
C         45.21980        45.64364         1.42493
C         44.19264        46.17909         2.21945
C         45.01053        48.46587         1.85941
C         44.12224        47.57602         2.43073
C         44.99138        49.91877         2.07851
C         43.62924        50.67257         1.85970
C         44.93450        52.71024         1.25456
C         43.73412        52.02695         1.22866
C         45.07637        54.00728         0.56762
C         43.84112        54.67491         0.01934
C         44.98370        56.87393         0.05599
C         43.89241        56.14363        -0.19783
C         47.13313        44.79997        -0.73255
C         47.28249        45.95325         0.03648
C         46.15924        46.46264         0.80603
C         47.44057        48.45772         1.37767
C         46.07872        47.95615         0.92205
C         47.44957        49.90508         1.82744
C         46.21439        50.66372         1.84457
C         47.47559        52.82299         1.47730
C         46.17982        52.16938         1.94441
C         47.50147        54.17138         1.05841
C         46.28633        54.82298         0.76721
C         47.52061        56.86449         0.04435
C         46.24506        56.32597         0.66505
C         47.56067        58.03821        -0.70276
C         49.35242        45.12048        -1.64242
C         48.14356        44.43726        -1.63510
C         49.67481        46.16304        -0.71319
C         48.54144        46.66887         0.02607
C         49.88725        48.55620         0.82063
C         48.65281        47.86987         0.76243
C         49.95678        49.88763         1.36738
C         48.75817        50.60796         1.82500
C         50.01116        52.79854         1.35376
C         48.74767        52.14232         1.72707
C         50.01940        54.18318         1.03045
C         48.76807        54.89730         0.89398
C         49.99419        56.97709         0.19957
C         48.74497        56.20920         0.38632
C         50.00989        58.15262        -0.68561
C         48.77125        58.61804        -1.13394
C         52.55196        42.07149        -2.37104
C         51.41782        42.79144        -2.68539
C         52.40455        44.83472        -1.70506
C         51.35708        44.15066        -2.32305
C         52.24270        46.17466        -1.09295
C         50.98186        46.73575        -0.53695
C         52.30270        48.60998         0.45824
C         51.05890        47.93950         0.24198
C         52.36028        49.86665         1.05909
C         51.17016        50.58974         1.37703
C         52.43613        52.71633         1.12964
C         51.20775        52.04779         1.39521
C         52.45198        54.05232         0.72392
C         51.25956        54.80263         0.70854
C         52.53088        56.81144        -0.19836
C         51.32712        56.24052         0.40876
C         52.52646        58.06947        -0.79769
C         51.26775        58.72301        -1.10942
C         52.45921        60.17964        -2.65631
C         51.28744        59.81418        -2.00339
C         54.90315        40.60633        -1.57423
C         54.92612        42.02024        -1.67286
C         53.69733        42.74294        -1.87780
C         54.93001        44.86744        -1.56506
C         53.68090        44.14915        -1.66486
C         54.64470        46.38507        -1.72718
C         53.43263        46.85198        -0.94793
C         54.87571        48.68294         0.18220
C         53.52563        48.12765        -0.21789
C         54.93282        49.76687         1.22360
C         53.64515        50.51532         1.37131
C         55.01584        52.68728         1.18902
C         53.70779        52.01832         1.37567
C         55.00785        54.00724         0.73309
C         53.74377        54.61922         0.25865
C         55.04944        56.78972        -0.26109
C         53.77573        56.03047        -0.24034
C         55.05534        58.06841        -0.82776
C         53.78820        58.59372        -1.30737
C         55.64740        60.73296        -2.43659
C         53.67210        59.55794        -2.32428
C         55.65867        62.06698        -2.84996
C         57.32221        40.52207        -1.44199
C         56.06106        39.87632        -1.43214
C         57.35070        41.93441        -1.52743
C         56.15838        42.72209        -1.58836
C         57.52162        44.80838        -1.62446
C         56.17466        44.18521        -1.63813
C         57.76222        46.20616        -1.74531
C         55.84873        47.22355        -1.45405
C         57.40969        48.79415        -0.26006
C         56.10305        48.06663        -0.41805
C         57.46172        49.51697         1.08414
C         56.24429        50.45599         1.47684
C         57.39161        52.78640         1.68266
C         56.25790        51.98781         1.51684
C         57.31652        54.30596         1.59774
C         56.18422        54.82677         0.74644
C         57.35368        57.04555         0.72138
C         56.20878        56.14926         0.30039
C         57.48799        58.32570        -0.08502
C         56.43086        58.71565        -1.11197
C         57.46701        61.09111        -0.92967
C         56.47333        60.21859        -1.42037
C         57.50768        62.44561        -1.34187
C         56.58012        62.93470        -2.27708
C         59.64212        37.53859        -1.08095
C         58.52294        38.29295        -1.25273
C         59.76849        40.37548        -1.07191
C         58.54434        39.74031        -1.23243
C         59.92228        41.78311        -1.43865
C         58.65543        42.59767        -1.64993
C         59.97941        44.67593        -1.27537
C         58.71175        44.05511        -1.47193
C         60.04872        46.08156        -1.00215
C         58.87591        46.86850        -1.22890
C         60.04727        48.89708        -0.24139
C         58.76423        48.28691        -0.77623
C         59.94398        49.97679         0.77725
C         58.75836        50.16805         1.39785
C         59.89271        52.85389         1.81607
C         58.67943        52.24914         2.05105
C         59.88602        54.33038         1.71779
C         58.63742        54.98439         1.28521
C         59.88963        57.07702         0.96511
C         58.66005        56.30832         0.93717
C         59.77225        58.54136         0.82804
C         58.56984        59.11037         0.16305
C         59.87836        61.27540        -0.25430
C         58.53187        60.62149         0.02933
C         59.86079        62.68948        -0.60788
C         58.62789        63.30635        -0.93918
C         59.68933        65.48840        -0.75944
C         58.56085        64.70461        -1.01260
C         62.21465        36.04357        -0.98899
C         62.19363        37.41364        -0.68319
C         60.89524        38.12326        -0.59182
C         62.27043        40.31379        -0.61919
C         60.94906        39.66081        -0.58179
C         62.33947        41.70462        -0.84159
C         61.18570        42.47219        -1.12760
C         62.42716        44.58497        -1.08362
C         61.19749        43.90066        -1.17740
C         62.48576        45.99727        -1.00756
C         61.30281        46.70979        -0.73077
C         62.43868        48.60859         0.66644
C         61.32169        48.09861        -0.19744
C         62.46486        49.99767         0.91187
C         61.17480        50.65130         1.26343
C         62.46070        52.85370         1.69778
C         61.16218        52.08292         1.80276
C         62.47883        54.35343         1.66228
C         61.17625        55.10292         1.69192
C         62.37861        57.21988         1.05539
C         61.13048        56.49581         1.20061
C         62.36050        58.59247         0.78535
C         61.07339        59.32361         0.74599
C         62.34136        61.32089        -0.13079
C         61.04815        60.65674         0.10686
C         62.32547        62.79261        -0.43008
C         61.02723        63.48903        -0.49583
C         62.12683        65.77182        -0.14707
C         60.94261        64.89982        -0.54138
C         62.30316        67.06235        -0.92179
C         64.62162        35.95215        -0.64781
C         63.40284        35.32876        -0.98039
C         64.63268        37.35208        -0.38670
C         63.41386        38.09497        -0.42257
C         64.65517        40.21135         0.00007
C         63.45120        39.55335        -0.32796
C         64.80312        41.63661        -0.13723
C         63.66829        42.35215        -0.79428
C         64.83038        44.59807        -0.34179
C         63.69511        43.84252        -0.95373
C         64.95222        46.01516        -0.78018
C         63.79477        46.65301        -1.17354
C         64.88281        48.57468         0.94123
C         63.62987        47.90080         1.01120
C         64.90836        49.98970         0.92211
C         63.68145        50.67368         1.09640
C         64.88717        52.92227         0.82788
C         63.62666        52.15324         1.06077
C         64.89611        54.38864         1.03082
C         63.68958        55.08225         1.19561
C         64.86210        57.21097         0.93311
C         63.64284        56.50364         1.08030
C         64.83867        58.64492         0.80215
C         63.59282        59.32153         0.63340
C         64.79414        61.46687         0.44157
C         63.59769        60.70929         0.36062
C         64.79860        62.90544         0.30084
C         63.57736        63.57771        -0.21753
C         64.62106        65.86956         0.29003
C         63.46145        65.05426        -0.19228
C         64.71325        67.19882        -0.33843
C         63.50330        67.69611        -0.97146
C         67.04969        33.02796        -0.46580
C         65.85192        33.80146        -0.64762
C         67.16664        35.86258        -0.30881
C         65.83757        35.16500        -0.51359
C         67.05112        37.29181         0.19677
C         65.86752        37.99496         0.02930
C         67.09930        40.11441         0.86988
C         65.80641        39.40456         0.46059
C         67.09446        41.65219         1.00236
C         65.97711        42.30992         0.17371
C         67.30748        44.50881         0.11477
C         66.00435        43.80130         0.14677
C         67.37587        45.83202        -0.17622
C         66.21769        46.77441        -0.46971
C         67.42412        48.58457         0.82131
C         66.13641        47.73178         0.84015
C         67.36616        50.05614         0.68870
C         66.15910        50.75229         0.80665
C         67.37621        52.93263         0.70566
C         66.16044        52.18426         0.76761
C         67.36534        54.37492         0.72314
C         66.12614        55.08445         0.86792
C         67.34497        57.21360         0.81775
C         66.10802        56.50558         0.87724
C         67.30444        58.66722         1.04526
C         66.03661        59.38941         0.83854
C         67.25096        61.56663         0.77079
C         66.02669        60.79944         0.72258
C         67.20235        62.99075         0.78974
C         65.93184        63.65039         0.61056
C         67.15260        65.88952         0.58375
C         65.88688        65.14246         0.66578
C         67.17458        67.18935         0.08893
C         65.96144        67.82551        -0.43503
C         67.31811        69.66669        -1.30678
C         66.09877        69.08414        -1.11516
C         69.37199        31.39212         0.34049
C         69.38576        32.80178         0.34284
C         68.17388        33.57429         0.08593
C         69.46990        35.67749         0.59905
C         68.11460        35.01845         0.55392
C         69.48068        37.13103         0.81950
C         68.26880        37.95349         0.59283
C         69.63516        40.03453         0.65727
C         68.35289        39.34540         0.73226
C         69.69363        41.45220         0.57993
C         68.48044        42.29812         0.78849
C         69.85998        44.25674        -0.27097
C         68.56415        43.74626         0.38656
C         69.96680        45.78055        -0.18675
C         68.68196        46.53019        -0.13920
C         69.97800        48.62418         0.23251
C         68.70651        47.90381         0.43918
C         69.92928        50.07808         0.09312
C         68.57319        50.80235         0.29862
C         69.83296        52.96157         0.37196
C         68.61014        52.25234         0.52049
C         69.80215        54.38572         0.35828
C         68.58519        55.09816         0.55168
C         69.78544        57.32687         0.46812
C         68.56746        56.54856         0.62983
C         69.79668        58.70673         0.53313
C         68.59280        59.45101         0.91736
C         69.69262        61.66845         0.68449
C         68.51167        60.91744         0.73616
C         69.64194        63.06776         0.92701
C         68.40819        63.73273         0.96525
C         69.61268        65.99591         1.22477
C         68.30308        65.21030         1.31703
C         69.66479        67.33342         0.54635
C         68.43796        67.89680        -0.06890
C         69.82028        69.75335        -1.11349
C         68.51040        69.08284        -0.76932
C         69.82207        71.25189        -0.88391
C         71.73237        31.33402         0.85121
C         70.53273        30.66460         0.58908
C         71.76721        32.72756         0.85164
C         70.60848        33.48080         0.59043
C         71.90889        35.64217         0.47092
C         70.64084        34.95138         0.59422
C         72.00253        36.99536         0.46812
C         70.84519        37.83561         0.79905
C         72.07057        39.95794         0.36376
C         70.85033        39.29486         0.56414
C         72.12127        41.34166         0.30156
C         70.94352        42.10036         0.42702
C         72.11678        44.25143         0.83794
C         71.03433        43.56132         0.37377
C         72.20500        45.69092         0.81928
C         71.17837        46.46318         0.35102
C         72.38848        48.70959         0.39804
C         71.17659        47.93326         0.32497
C         72.37217        50.08344         0.41478
C         71.16379        50.84854         0.28362
C         72.32138        53.03258         0.29985
C         71.10268        52.25266         0.30579
C         72.31445        54.37768         0.16436
C         71.04896        55.11979         0.04970
C         72.30244        57.39812         0.26576
C         71.04283        56.63235         0.08625
C         72.29630        58.73909         0.31936
C         71.02179        59.48942         0.21922
C         72.21645        61.78159         0.54910
C         70.97833        60.99910         0.34659
C         72.18399        63.05720         0.96720
C         70.91635        63.76051         1.26736
C         72.14799        66.04158         1.28206
C         70.90660        65.26158         1.45068
C         72.17224        67.25590         0.68665
C         70.98559        67.91302         0.16983
C         72.28279        69.85208        -0.69614
C         71.04670        69.11433        -0.49972
C         72.25348        71.20028        -0.88670
C         70.99523        71.92022        -0.86005
O         61.05705        49.11167        -1.27849
O         47.49966        48.73686         2.79170
O         66.18757        39.55292         1.87704
O         60.73050        38.88550         0.64513
O         54.77974        59.86682        -3.12611
O         69.53753        67.21590         2.02967
O         59.43629        42.10771        -2.79973
O         70.18765        37.48911         2.05765
O         53.73168        54.88291        -1.20053
O         54.12598        49.25884        -0.97259
O         44.16216        50.48868         3.16219
O         63.92954        52.62026        -0.30126
O         50.75487        57.11068         1.44594
O         60.44897        54.94427         2.94982
O         70.91523        60.33927        -0.97963
O         48.88217        51.43219         3.02328
O         43.08864        48.05852         3.26439
O         70.95849        55.92998        -1.19865
O         50.19679        44.82545        -2.70652
O         60.28078        59.27466         1.99607
O         61.21236        50.94745         2.70945
O         69.44567        46.44365        -1.39614
O         55.55916        49.69225         2.53216
O         68.74137        43.36201         1.77591
O         65.00882        44.37828         1.10224
O         69.09245        50.46588        -1.04858
O         53.61492        51.25014         2.62782
O         64.06069        42.98301        -2.08156
O         62.78196        53.60828         2.90008
O         64.96101        65.70561         1.68897
O         44.71840        53.92385        -0.88885
O         56.82739        46.99385        -2.41797
O         42.06347        49.62760         0.22821
O         58.67240        50.93828         2.56210
O         63.81193        64.40409        -1.44310
O         68.34049        48.06810         1.87281
O         70.89306        64.37572         2.60873
O         68.05975        59.07022         2.24297
O         62.48350        61.81136        -1.51586
O         57.98357        49.31469        -1.47958
O         63.51359        46.63020         1.43749
H         64.39731        46.26889         1.71095
O         57.43071        48.36327         1.97728
H         57.40463        48.69970         2.90049
O         56.95500        57.50305         2.05866
H         56.98624        56.71305         2.65401
O         46.24537        56.82935         2.05075
H         47.09041        56.55359         2.46689
O         54.31729        46.55142        -3.13436
H         55.16936        46.65230        -3.61455
O         45.86732        48.54549        -0.40168
H         45.02049        48.20279        -0.75795
O         66.58479        47.66155        -1.53245
H         66.49167        47.19580        -2.38802
O         61.91378        66.11603         1.25106
H         61.08244        66.62992         1.31786
O         56.87606        58.06060        -2.34365
H         56.23704        58.31593        -3.04768
O         69.95352        69.58185        -2.56814
H         70.78204        70.03484        -2.83473
O         63.83680        47.88720        -1.73187
H         62.93573        48.22778        -1.91595
O         66.73259        41.96800         2.36021
H         66.13678        41.24801         2.67502
O         58.14969        61.07363         1.36419
H         58.75878        60.62679         1.99952
O         67.79838        35.96299        -1.62235
H         67.14670        36.34953        -2.24380
O         67.57944        35.02471         1.90299
H         68.26264        34.66737         2.50735
O         57.00994        54.76842         2.97021
H         56.27777        54.21450         3.31769
O         66.14419        46.85979         1.97895
H         67.03826        46.91902         2.39938
O         46.07955        52.51680         3.36729
H         46.82997        52.06785         3.81941
O         67.90876        65.23287         2.71335
H         68.13011        66.12869         3.05492
O         69.82036        43.87317        -1.66413
H         69.63463        44.69492        -2.17797
H         37.30455        48.94002         1.01195
H         35.35993        50.05177        -0.03054
H         37.75800        53.52488        -0.88273
H         35.59651        52.35074        -0.99291
H         38.70414        48.41709         2.27487
H         39.22292        54.56884        -0.24113
H         40.65120        47.36066         3.36913
H         41.36508        55.73120        -0.31481
H         45.30037        44.55165         1.32040
H         43.46756        45.52001         2.71188
H         44.93665        57.96252        -0.09404
H         43.00246        56.64648        -0.60314
H         46.18141        44.25149        -0.72696
H         46.62512        58.52635        -1.00705
H         47.97575        43.63801        -2.36815
H         48.70981        59.49489        -1.79190
H         52.59220        41.00002        -2.60306
H         50.55447        42.31954        -3.17080
H         52.44701        60.95081        -3.43696
H         50.35783        60.33879        -2.25920
H         53.94218        40.07596        -1.57138
H         54.97161        62.40124        -3.63742
H         55.99099        38.78755        -1.31645
H         56.62601        63.98006        -2.60997
H         59.59514        36.46222        -1.29729
H         57.60131        37.78363        -1.56555
H         59.59555        66.58429        -0.77484
H         57.60611        65.20081        -1.23511
H         61.28044        35.51254        -1.21278
H         61.43302        67.51852        -1.41798
H         63.37005        34.25601        -1.20862
H         63.55602        68.64575        -1.52362
H         67.02214        31.96795        -0.75669
H         64.93622        33.24785        -0.89781
H         67.39329        70.60190        -1.87803
H         65.20611        69.57862        -1.51959
H         68.43090        30.85423         0.16041
H         68.86755        71.79760        -0.86570
H         72.64750        30.76349         1.06153
H         70.50224        29.56629         0.59078
H         72.71569        33.23473         1.07471
H         72.80845        35.05015         0.25245
H         72.96110        37.46614         0.21035
H         73.00525        39.38748         0.29008
H         73.08471        41.84826         0.15523
H         72.95192        43.70221         1.29680
H         73.10741        46.15863         1.23744
H         73.35076        48.18472         0.47843
H         73.33113        50.60898         0.52020
H         73.28672        52.51116         0.34362
H         73.26514        54.91984         0.07448
H         73.25917        56.85797         0.29291
H         73.24328        59.29190         0.39567
H         73.18019        61.30854         0.31389
H         73.12516        63.60229         1.12504
H         73.07752        65.61436         1.68321
H         73.13739        67.77155         0.58978
H         73.25118        69.34004        -0.60387
H         73.18926        71.76904        -0.97773
H         71.01819        73.01738        -0.79090
