         420
 CSIRO Nanostructure Databank - Neutral Graphene Oxide Data Set
C         28.15809        27.29027         1.44516
C         28.08366        28.71735         1.47974
C         26.87930        29.38273         1.81944
C         27.94225        31.55863         1.54296
C         26.80161        30.76443         1.81536
C         27.79425        33.02777         1.37394
C         26.69268        33.61045         0.72318
C         27.84922        35.76931         0.60589
C         26.70422        34.97481         0.41426
C         27.86784        37.19339         0.16529
C         26.63471        37.99001         0.37770
C         27.82223        40.05632        -0.31679
C         26.63083        39.32556         0.25677
C         27.74780        41.56287        -0.12577
C         26.55866        42.28904        -0.65930
C         27.86061        44.36002        -0.99441
C         26.57976        43.61178        -0.90121
C         27.88107        45.83903        -1.00770
C         30.51032        27.37554         0.76893
C         29.32636        26.64988         1.12167
C         30.45785        28.80108         0.75192
C         29.24067        29.48262         1.15941
C         30.36634        31.67066         0.87519
C         29.16547        30.89887         1.26846
C         30.69097        32.93532         1.49842
C         28.84181        33.90472         1.72468
C         30.28629        35.95641         1.30824
C         28.99368        35.21298         1.21697
C         30.39075        37.31107         0.73280
C         29.17501        37.93930         0.14782
C         30.32014        40.11172         0.19273
C         29.14997        39.42659         0.10865
C         30.32134        41.59045         0.27911
C         29.02704        42.31080         0.03639
C         30.39129        44.43899        -0.44809
C         29.12871        43.66882        -0.58099
C         30.35761        45.82964        -0.94772
C         29.04214        46.51913        -0.98895
C         33.01833        24.61048         0.46446
C         31.83254        25.25686         0.50643
C         32.90893        27.44565         0.16597
C         31.74664        26.70706         0.47047
C         32.84474        28.86684         0.07246
C         31.61867        29.51648         0.34524
C         32.85856        31.71807         0.22350
C         31.59375        30.97608         0.26775
C         32.86327        33.11888         0.44036
C         31.72755        33.73968         1.07540
C         32.88075        35.94677         0.97187
C         31.68447        35.18929         1.32840
C         32.85632        37.35922         0.96797
C         31.58356        38.00540         0.72485
C         32.87546        40.18074         0.50161
C         31.65383        39.37543         0.09156
C         32.90345        41.61890         0.00427
C         31.59747        42.36308         0.23044
C         32.82677        44.56010        -0.09006
C         31.57712        43.81409        -0.14500
C         32.84567        45.92780        -0.31321
C         31.66707        46.61620        -0.85412
C         32.84133        48.77499        -0.79463
C         31.67864        48.09080        -0.88566
C         35.66191        23.16376         0.15494
C         35.59622        24.62396         0.12461
C         34.28474        25.35758         0.35321
C         35.27662        27.45726        -0.55624
C         34.19167        26.78492        -0.06310
C         35.19914        28.92450        -0.91976
C         34.01642        29.62705        -0.28825
C         35.23693        31.80509        -0.61444
C         34.03148        31.01130        -0.16151
C         35.29431        33.18637         0.00796
C         34.08987        33.84964         0.37693
C         35.30330        35.97515         0.80788
C         34.09048        35.25635         0.70961
C         35.30270        37.36495         1.05556
C         34.08102        38.09022         0.99935
C         35.30055        40.28951         1.05193
C         34.06201        39.55429         0.90552
C         35.34080        41.66753         0.65004
C         34.02754        42.42526         0.66115
C         35.27490        44.50287        -0.09588
C         34.07774        43.85312         0.14368
C         35.35216        45.93437        -0.25602
C         34.08733        46.72144         0.02750
C         35.31433        48.77976        -0.68201
C         34.11070        48.11785        -0.55957
C         35.39427        50.16966        -1.04539
C         37.94897        23.21880        -0.70353
C         36.78271        22.51172        -0.26166
C         37.88354        24.64796        -0.83602
C         36.69161        25.33148        -0.54066
C         37.78545        27.50909        -1.04962
C         36.49693        26.72424        -1.07124
C         37.75554        28.93213        -0.83648
C         36.51936        29.64342        -0.66116
C         37.75066        31.74311        -0.33182
C         36.52570        31.02281        -0.46533
C         37.75613        33.14930        -0.04652
C         36.51597        33.82485         0.19815
C         37.80477        35.93220         0.73255
C         36.54814        35.13899         0.93666
C         37.82281        37.24045         1.25138
C         36.57068        38.04758         1.45271
C         37.78993        40.48820         1.55939
C         36.54262        39.60191         1.51241
C         37.79597        41.82780         0.89414
C         36.51806        42.35566         0.39499
C         37.82196        44.43151        -0.39109
C         36.51910        43.71213        -0.18565
C         37.82234        45.91232        -0.44949
C         36.56323        46.60261        -0.37444
C         37.86246        48.76389        -0.72277
C         36.59135        48.10533        -0.22026
C         37.84947        50.15639        -0.96030
C         36.58209        50.83597        -1.09390
C         40.37457        20.40365        -1.22970
C         39.20802        21.08864        -1.00223
C         40.34225        23.24913        -1.32357
C         39.16052        22.51972        -1.01858
C         40.30810        24.69907        -1.42559
C         39.05123        25.38881        -1.25368
C         40.19780        27.58508        -1.67649
C         38.98130        26.81327        -1.32110
C         40.20937        29.03479        -1.26924
C         38.96851        29.65970        -0.77780
C         40.22661        31.75968        -0.42229
C         38.98354        31.04679        -0.48968
C         40.22280        33.15027        -0.13539
C         38.99020        33.84555         0.06772
C         40.24622        35.95741         0.44458
C         39.01091        35.25297         0.41049
C         40.28344        37.25359         1.02240
C         39.09880        37.74264         1.58036
C         40.29893        40.39125         1.19266
C         39.13924        39.91286         1.74137
C         40.30142        41.73319         0.62073
C         39.08274        42.43461         0.46854
C         40.31094        44.40032        -0.30718
C         39.09195        43.74748        -0.04060
C         40.27642        45.80500        -0.79441
C         39.02842        46.58911        -0.62691
C         40.31299        48.71809        -1.01716
C         39.07081        48.02694        -0.79137
C         40.28968        50.13066        -1.18714
C         39.08028        50.86110        -1.15531
C         40.28858        52.99782        -1.35529
C         39.11589        52.29843        -1.29251
C         42.81741        20.42235        -1.63848
C         41.58865        21.10820        -1.46053
C         42.79094        23.22626        -1.73563
C         41.56855        22.53395        -1.51335
C         42.73965        24.67624        -1.92226
C         41.48618        25.39611        -1.70470
C         42.75695        27.56390        -1.38021
C         41.52663        26.87934        -2.00113
C         42.71476        28.95419        -1.02070
C         41.49588        29.69427        -0.97873
C         42.70399        31.74373        -0.37625
C         41.47205        31.05362        -0.59211
C         42.70149        33.15026        -0.12568
C         41.46997        33.85725        -0.03365
C         42.71145        35.95958         0.26639
C         41.48769        35.26232         0.18513
C         42.68083        37.46488         0.25529
C         41.53749        38.04942         1.07867
C         42.77699        40.27396         0.70675
C         41.54949        39.57968         1.17480
C         42.77876        41.63275         0.41834
C         41.52836        42.37328         0.29647
C         42.82746        44.35705        -0.60851
C         41.53229        43.71728        -0.13799
C         42.83068        45.86340        -0.50621
C         41.59417        46.56082        -0.87191
C         42.79701        48.70864        -0.73753
C         41.57606        48.03312        -0.88186
C         42.87603        50.12530        -1.13999
C         41.54185        50.85898        -1.43461
C         42.76123        52.99579        -1.24694
C         41.55471        52.32443        -1.35254
C         44.00099        21.11608        -1.76960
C         45.27690        23.27612        -1.66121
C         44.02420        22.54079        -1.78406
C         45.27741        24.67548        -1.44690
C         44.06625        25.45748        -1.74588
C         45.18012        27.49963        -0.86671
C         43.97481        26.87177        -1.31811
C         45.15830        28.89393        -0.59061
C         43.93262        29.62007        -0.66864
C         45.15740        31.71309        -0.16480
C         43.92873        31.02359        -0.40311
C         45.16603        33.12776        -0.01059
C         43.93542        33.84798         0.02188
C         45.18923        35.97124         0.26768
C         43.93756        35.26541         0.19722
C         45.21132        37.40494         0.44063
C         44.00392        38.12361         0.54558
C         45.25301        40.23548         0.68380
C         44.01108        39.53028         0.66442
C         45.25293        41.66068         0.57177
C         44.03515        42.34165         0.29580
C         45.24191        44.47523         0.13982
C         44.04959        43.71946        -0.00836
C         45.21652        45.88636         0.05469
C         44.00061        46.57885        -0.25050
C         45.21483        48.75700        -0.21760
C         44.00592        48.03654        -0.36032
C         45.21242        50.27375        -0.12089
C         44.02917        50.94481        -0.78381
C         43.97097        52.31120        -0.94141
C         47.67632        23.23703        -1.21516
C         46.51937        22.58724        -1.57272
C         47.67862        24.62313        -0.88083
C         46.45239        25.35090        -1.01961
C         47.59086        27.41874        -0.29920
C         46.41310        26.76397        -0.73961
C         47.57442        28.83140        -0.06018
C         46.36877        29.56990        -0.23983
C         47.60610        31.66700         0.17117
C         46.37828        30.98149        -0.06990
C         47.63940        33.09403         0.14537
C         46.40542        33.83234         0.07181
C         47.65230        35.99065         0.01484
C         46.39097        35.24949         0.15318
C         47.70596        37.41525         0.35693
C         46.46086        38.11084         0.54646
C         47.75825        40.22634         1.00282
C         46.46794        39.50852         0.70644
C         47.73507        41.68201         0.62430
C         46.49905        42.37950         0.53851
C         47.72396        44.50543         0.33240
C         46.48644        43.78517         0.37920
C         47.72485        45.91700         0.24906
C         46.43300        46.65745         0.48347
C         47.68425        48.76160        -0.09052
C         46.44711        48.08472        -0.00131
C         47.67385        50.15957        -0.48979
C         46.52798        50.86516        -0.56125
C         50.08750        24.56053        -0.17970
C         48.85411        25.27629        -0.40720
C         49.94072        27.29431         0.47971
C         48.81678        26.67230        -0.09138
C         49.90239        28.71344         0.77726
C         48.74504        29.51059         0.37410
C         50.05698        31.62040         0.58139
C         48.80112        30.92516         0.41394
C         50.09301        33.04391         0.45940
C         48.88754        33.75521         0.24293
C         50.19744        35.92204         0.32009
C         48.95228        35.20214         0.03003
C         50.19317        37.34681         0.25588
C         48.93975        38.08497         0.33800
C         50.17511        40.21341         0.34412
C         48.98999        39.50753         0.51529
C         50.19580        41.64146         0.39108
C         48.95630        42.36747         0.46531
C         50.19375        44.49061         0.21174
C         48.95973        43.79070         0.33097
C         50.19021        45.92007         0.15476
C         48.94544        46.62569         0.16896
C         50.16953        48.75018         0.12411
C         48.92686        48.06690         0.07884
C         51.16152        25.12003         0.42426
C         52.46586        27.28869         0.61994
C         51.16638        26.53011         0.93940
C         52.49582        28.69803         0.67262
C         51.27100        29.46650         0.92424
C         52.52322        31.59079         0.62559
C         51.27746        30.91098         0.68473
C         52.53835        33.01929         0.64423
C         51.35016        33.74168         0.54554
C         52.62814        35.90627         0.53338
C         51.38304        35.20218         0.49900
C         52.64060        37.32499         0.36135
C         51.41949        38.03275         0.23779
C         52.68951        40.21725         0.21907
C         51.41647        39.49224        -0.13211
C         52.68343        41.60668         0.24694
C         51.42184        42.35300         0.23354
C         52.69532        44.48336        -0.14530
C         51.41598        43.75305         0.15997
C         52.67036        45.94950         0.22346
C         51.43358        46.64871         0.18349
C         51.36915        48.07313         0.20898
C         54.86465        27.28002         0.17834
C         53.66685        26.59799         0.37039
C         54.91000        28.68616         0.21761
C         53.70923        29.41991         0.45439
C         55.00094        31.54481         0.39002
C         53.74917        30.85034         0.52928
C         55.05661        32.95800         0.49517
C         53.83615        33.71457         0.96257
C         55.08151        35.86275         0.53728
C         53.85484        35.18674         0.62049
C         55.10635        37.31072         0.49055
C         53.89313        38.03887         0.38688
C         55.13629        40.17344         0.53800
C         53.90857        39.47592         0.36735
C         55.14439        41.61820         0.56742
C         53.92161        42.33052         0.38816
C         55.12121        44.46102         0.53063
C         53.92395        43.74634         0.33042
C         55.09866        45.89823         0.53873
C         53.91385        46.59936         0.43015
C         56.13867        29.40244         0.03187
C         56.18042        30.76554         0.12139
C         56.25828        33.70346         0.36299
C         56.28790        35.08072         0.45270
C         56.32479        38.03869         0.59899
C         56.33569        39.41476         0.64629
C         56.33954        42.36511         0.75766
C         56.32689        43.74392         0.76530
O         37.14220        43.78122        -1.53625
O         37.66156        41.69538         2.39182
O         30.57238        31.61662        -0.57571
O         29.86104        33.37189         2.53906
O         28.61288        37.35414        -1.09988
O         28.72567        43.71131        -2.00128
O         39.97193        28.62525        -2.69219
O         41.85343        38.70425         2.32452
O         50.48087        29.07283         2.09083
O         43.52787        25.16599        -3.06076
O         30.98581        42.06860         1.51603
O         42.37524        50.32121        -2.50280
O         35.20487        25.17937         1.48458
O         36.40250        38.76784         2.71268
O         31.19082        46.04183        -2.13395
O         28.11649        42.12683         1.17659
O         39.17696        38.76401         2.52827
O         31.03733        35.70957         2.52149
O         40.93340        45.98849        -2.09416
O         48.35033        35.65193        -1.24196
O         47.86852        40.21359         2.48561
H         47.07389        40.66858         2.83868
O         33.11825        41.57932        -1.43449
H         34.04316        41.29798        -1.60158
O         42.32894        37.84492        -1.12412
H         43.01112        37.47203        -1.72210
O         34.08417        46.91938         1.48424
H         34.92819        47.38912         1.70259
O         53.91204        33.67338         2.44896
H         54.76406        34.09095         2.69985
O         46.32685        46.76957         1.96922
H         47.19528        47.08931         2.29581
O         52.79828        44.47970        -1.62709
H         53.64905        44.91168        -1.85572
O         41.71595        26.97983        -3.43837
H         41.29150        27.82737        -3.71364
O         42.89842        44.06404        -2.05286
H         42.18185        44.60112        -2.47568
O         34.98062        29.02121        -2.37153
H         35.41470        28.22621        -2.77680
O         36.59792        34.74319         2.36260
H         36.58170        35.56612         2.89841
O         33.66588        42.53204         2.06160
H         34.42601        42.90765         2.55248
O         36.18111        26.54872        -2.53996
H         37.01486        26.26388        -2.97592
O         51.35508        39.51876        -1.60603
H         50.56484        39.00385        -1.87644
O         31.83437        39.13031        -1.34746
H         32.08123        39.99396        -1.76074
O         35.06657        31.99619        -2.05507
H         34.99755        31.09524        -2.45456
O         27.77199        39.87925        -1.76045
H         27.99155        38.93006        -1.93796
O         45.07433        50.56842         1.31623
H         45.77901        50.07023         1.78269
O         51.11264        26.44121         2.40018
H         50.95745        27.36180         2.72710
O         36.60364        48.31336         1.25436
H         36.66083        49.28186         1.40610
H         27.26163        26.70670         1.69983
H         25.98905        28.78342         2.05893
H         25.84481        31.25777         2.03723
H         25.82963        32.99416         0.43547
H         25.82362        35.41696        -0.07188
H         25.74617        37.46468         0.75936
H         25.71702        39.89476         0.48295
H         25.61169        41.73283        -0.73023
H         25.65837        44.14035        -1.19033
H         26.92024        46.37529        -1.02904
H         29.34090        25.55237         1.13214
H         29.02631        47.61762        -1.03738
H         33.04647        23.51607         0.55723
H         30.91327        24.66462         0.60490
H         32.81872        49.86732        -0.91455
H         30.74501        48.62865        -1.10066
H         34.82608        22.59467         0.58400
H         34.47291        50.72228        -1.27200
H         36.80049        21.41627        -0.19620
H         36.56890        51.90380        -1.34543
H         40.38607        19.30457        -1.21378
H         38.29337        20.51305        -0.81254
H         40.27470        54.09684        -1.39336
H         38.17412        52.86188        -1.28892
H         42.82085        19.32300        -1.62883
H         42.76583        54.09551        -1.24652
H         44.93666        20.54854        -1.85529
H         44.84833        52.92684        -0.69795
H         48.60790        22.65885        -1.16732
H         46.56906        21.51274        -1.79146
H         48.62002        50.63896        -0.77737
H         46.56002        51.91784        -0.87547
H         50.15110        23.50454        -0.47693
H         50.18873        49.84836         0.11134
H         52.03415        24.48731         0.63866
H         52.29693        48.65926         0.25109
H         55.79018        26.71637        -0.00784
H         53.67502        25.50135         0.32265
H         56.04054        46.43900         0.70909
H         53.94329        47.69152         0.55189
H         57.05775        28.83200        -0.16639
H         57.14474        31.27430        -0.01015
H         57.20595        33.18045         0.17203
H         57.25606        35.58856         0.35224
H         57.27880        37.50150         0.68449
H         57.29999        39.92763         0.76055
H         57.29429        41.84530         0.91333
H         57.25831        44.30407         0.93180
