         630
 CSIRO Nanostructure Databank - Neutral Graphene Oxide Data Set
C         23.13375        27.43127        -1.53587
C         23.14612        28.79816        -1.61017
C         23.14790        31.72593        -1.58337
C         23.12230        33.10329        -1.48387
C         23.07164        36.02259        -1.13072
C         23.05526        37.40926        -1.05124
C         23.03744        40.34286        -0.89295
C         23.03165        41.71898        -0.79481
C         23.00500        44.64495        -0.55743
C         23.01261        46.01649        -0.62051
C         25.60778        24.60892        -1.27495
C         24.38898        25.32926        -1.31959
C         25.58957        27.43431        -2.00820
C         24.35478        26.68932        -1.55745
C         25.60388        28.87299        -1.52029
C         24.37877        29.55204        -1.52735
C         25.53360        31.69341        -1.04993
C         24.34006        30.98908        -1.37595
C         25.47084        33.10721        -0.88846
C         24.28393        33.82987        -1.12122
C         25.47258        36.01391        -0.76461
C         24.26700        35.28995        -0.99657
C         25.46619        37.44175        -0.70431
C         24.23754        38.15126        -0.84428
C         25.44916        40.29782        -0.52118
C         24.23483        39.59703        -0.75540
C         25.44574        41.72484        -0.42163
C         24.22437        42.44668        -0.55207
C         25.43619        44.55726        -0.20468
C         24.22627        43.88494        -0.42465
C         25.42721        46.03726         0.08217
C         24.22399        46.74970        -0.47758
C         25.52481        48.79283        -0.73658
C         24.29442        48.11809        -0.72345
C         28.11736        23.12037        -1.36543
C         28.08198        24.53011        -1.27315
C         26.83750        25.23133        -1.45048
C         28.14483        27.42131        -1.35763
C         26.89204        26.67709        -1.75805
C         28.06915        28.87010        -1.07930
C         26.82637        29.55814        -1.20496
C         27.98066        31.62372        -0.58131
C         26.77655        30.96059        -0.91986
C         27.93836        33.06957        -0.29013
C         26.66781        33.84088        -0.44357
C         27.90074        36.01341        -0.40845
C         26.70985        35.31696        -0.57985
C         27.91592        37.44422        -0.35272
C         26.68698        38.15712        -0.48234
C         27.90509        40.28041        -0.16055
C         26.68439        39.57929        -0.38793
C         27.90243        41.70929        -0.05948
C         26.67225        42.42674        -0.19515
C         27.90242        44.54907         0.09196
C         26.66679        43.84662        -0.10827
C         27.92541        46.00677        -0.04851
C         26.73911        46.71640        -0.23092
C         28.01822        48.77295        -0.75485
C         26.74914        48.11247        -0.55944
C         28.10120        50.11817        -1.20222
C         30.49419        23.08777        -0.82945
C         29.29210        22.42143        -1.17915
C         30.48750        24.50457        -0.67917
C         29.29179        25.24126        -0.95666
C         30.48375        27.35462        -0.48372
C         29.30475        26.65737        -0.86230
C         30.46448        28.79897        -0.38961
C         29.25103        29.52766        -0.64479
C         30.41296        31.66186        -0.04901
C         29.20787        30.94650        -0.44186
C         30.43874        33.07351        -0.00220
C         29.22570        33.80493        -0.41065
C         30.39823        36.00610         0.07758
C         29.19716        35.29540        -0.39360
C         30.34372        37.39146         0.14154
C         29.13884        38.13888        -0.13225
C         30.35131        40.30347         0.16307
C         29.13835        39.56832        -0.04062
C         30.35103        41.69294         0.29829
C         29.11022        42.41610         0.19842
C         30.33078        44.58239         0.70565
C         29.08938        43.84003         0.28158
C         30.39026        45.99780         0.17737
C         29.19064        46.68441        -0.11578
C         30.48339        48.73527        -0.61244
C         29.22645        48.06846        -0.49298
C         30.53849        50.07187        -1.09934
C         29.31763        50.73698        -1.39196
C         33.01359        20.27529        -0.80767
C         31.82184        20.98174        -0.93361
C         32.86192        23.04762        -0.10969
C         31.70562        22.35270        -0.59368
C         32.88614        24.43821        -0.04276
C         31.69417        25.20243        -0.33241
C         32.96849        27.38329        -0.12408
C         31.67739        26.61441        -0.23394
C         32.78599        28.77421         0.41748
C         31.62676        29.48788         0.11335
C         32.74866        31.65932         0.66151
C         31.59597        30.94119         0.27455
C         32.79410        33.07934         0.64010
C         31.60702        33.80299         0.31477
C         32.79150        35.92182         0.68431
C         31.59805        35.25126         0.36878
C         32.79473        37.38326         0.85159
C         31.52961        38.14555         0.58081
C         32.86439        40.28346         0.58818
C         31.65647        39.55600         0.05493
C         32.85599        41.68866         0.60878
C         31.61051        42.41824         0.45709
C         32.84613        44.54096         0.57535
C         31.61464        43.80958         0.49808
C         32.82952        45.95199         0.49713
C         31.63036        46.67589         0.18885
C         32.91039        48.76297        -0.27136
C         31.68789        48.06492        -0.21467
C         33.00278        50.05573        -0.86416
C         31.81418        50.71327        -1.29422
C         33.15955        52.58917        -2.07495
C         31.92972        51.99470        -1.89315
C         35.42460        18.72331        -0.24345
C         35.34061        20.12047         0.04349
C         34.14097        20.83603        -0.17938
C         35.21352        22.90300         0.88133
C         33.92817        22.16122         0.51039
C         35.24467        24.40588         0.92189
C         34.22157        25.15683         0.07813
C         35.28398        27.28210         0.81592
C         34.13680        26.61742         0.45136
C         35.24501        28.71782         1.18866
C         33.91999        29.43502         1.09026
C         35.24583        31.65407         1.31045
C         33.91988        30.92913         1.18193
C         35.27028        33.10072         1.01593
C         34.03398        33.79103         0.84237
C         35.25490        35.93675         0.93632
C         34.02592        35.21485         0.80920
C         35.26844        37.38078         0.94839
C         34.07140        38.11894         0.83816
C         35.29150        40.24319         1.09499
C         34.06515        39.54351         0.83609
C         35.30077        41.69608         1.07192
C         34.08082        42.41029         0.81959
C         35.32646        44.54681         0.82388
C         34.09188        43.83237         0.74633
C         35.35767        45.97201         0.76886
C         34.07633        46.69271         0.72006
C         35.42315        48.78077         0.05733
C         34.11498        48.17406         0.32310
C         35.48537        50.05231        -0.54995
C         34.27794        50.69928        -1.01334
C         35.65425        52.58634        -1.85493
C         34.35972        51.95959        -1.64644
C         35.78260        53.77606        -2.59219
C         37.84592        18.71279         0.09926
C         36.60934        18.04079        -0.17098
C         37.82337        20.10589         0.37382
C         36.54509        20.81556         0.45825
C         37.74372        22.94780         0.62323
C         36.49546        22.16481         0.81869
C         37.76452        24.43574         0.62676
C         36.56597        25.12995         1.22964
C         37.75116        27.30760         1.05645
C         36.55338        26.61249         0.95990
C         37.75570        28.76866         1.15549
C         36.51457        29.48581         1.20454
C         37.74435        31.61387         1.24636
C         36.51407        30.88604         1.25749
C         37.74837        33.04699         1.17644
C         36.49441        33.78782         1.04073
C         37.70467        35.95177         1.10349
C         36.47845        35.22355         1.00061
C         37.71972        37.33715         1.23964
C         36.49807        38.08098         1.15383
C         37.71858        40.20157         1.65659
C         36.47516        39.49904         1.28578
C         37.73262        41.71595         1.62520
C         36.50098        42.41810         1.22900
C         37.77871        44.54357         1.09905
C         36.55470        43.83550         1.03743
C         37.81573        45.95942         0.91914
C         36.56712        46.68557         0.77996
C         37.83718        48.79770         0.41981
C         36.60456        48.10236         0.46091
C         37.91994        50.09490        -0.14438
C         36.74625        50.70640        -0.68041
C         38.10512        52.61217        -1.49030
C         36.83430        51.97729        -1.33123
C         38.19004        53.81054        -2.23644
C         37.03060        54.35477        -2.80096
C         40.34195        15.90498        -0.12199
C         39.14526        16.57616        -0.09807
C         40.31475        18.70494         0.23413
C         39.09256        17.99425         0.07693
C         40.27658        20.10996         0.46806
C         39.05769        20.79093         0.56755
C         40.22514        23.01452         0.25437
C         39.05219        22.26388         0.93419
C         40.26130        24.49508         0.61047
C         39.05220        25.17425         0.75194
C         40.24487        27.27534         1.06232
C         39.02103        26.58214         0.98429
C         40.21886        28.69384         1.46877
C         38.96213        29.46839         1.31753
C         40.21316        31.63200         1.42064
C         38.98404        30.90189         1.33530
C         40.22569        33.03802         1.29710
C         38.97910        33.72825         1.15706
C         40.26405        35.93374         1.00135
C         38.96529        35.18961         0.93934
C         40.26125        37.36872         1.30185
C         38.98160        38.02444         1.72141
C         40.19435        40.21757         1.51653
C         39.00452        39.51286         1.52082
C         40.21288        41.67602         1.52855
C         39.02943        42.38970         1.49722
C         40.32067        44.51390         1.23242
C         39.02117        43.88384         1.64918
C         40.33559        45.90739         0.67904
C         39.04278        46.64226         0.90615
C         40.33872        48.85376         1.01118
C         39.04628        48.10776         0.92353
C         40.32133        50.29634         0.58228
C         39.17210        50.80979        -0.20494
C         40.55528        52.74264        -0.94606
C         39.27867        52.02706        -0.87331
C         40.64584        53.95215        -1.65583
C         39.53135        54.42287        -2.56132
C         40.64919        56.64415        -2.60113
C         39.51009        55.92790        -2.69502
C         42.82165        15.90843        -0.07101
C         41.57967        16.60456        -0.00240
C         42.82586        18.71170         0.24294
C         41.57375        18.00949         0.17163
C         42.84192        20.13477         0.36220
C         41.56131        20.83750         0.61411
C         42.75762        23.08237         0.20942
C         41.52969        22.32463         0.57798
C         42.75233        24.51984         0.51827
C         41.50480        25.20066         0.68885
C         42.74631        27.35041         0.87828
C         41.49464        26.61349         0.91340
C         42.76851        28.75838         1.11745
C         41.52953        29.41870         1.59552
C         42.78709        31.65721         1.68335
C         41.48025        30.91648         1.71351
C         42.75878        33.10400         1.36633
C         41.49517        33.77905         1.28696
C         42.72415        35.93448         1.18173
C         41.50882        35.17967         1.19105
C         42.69224        37.34342         1.20276
C         41.46003        38.06109         1.35258
C         42.64512        40.22967         1.60499
C         41.46082        39.51839         1.49443
C         42.68379        41.66664         1.67796
C         41.48300        42.37603         1.57156
C         42.77893        44.50650         1.39468
C         41.49921        43.81242         1.38413
C         42.78637        45.95096         1.21183
C         41.61518        46.65879         0.99034
C         42.82221        48.80147         0.86781
C         41.63935        48.11561         0.93161
C         42.88582        50.31147         1.04295
C         41.62309        51.03387         0.55732
C         42.97080        52.86622        -0.45023
C         41.72638        52.22803        -0.31130
C         43.04243        54.13770        -1.08822
C         41.85844        54.69536        -1.65288
C         43.10021        56.72745        -2.20572
C         41.89345        56.02403        -2.18727
C         44.01560        16.58437        -0.00436
C         45.29815        18.73326         0.16751
C         44.05418        18.00453         0.13749
C         45.29128        20.15467         0.22881
C         44.04154        20.84387         0.30038
C         45.29245        23.07049         0.39440
C         44.05439        22.32162         0.16568
C         45.25037        24.48080         0.47752
C         43.97944        25.20952         0.53775
C         45.20869        27.33615         0.36860
C         43.95616        26.62891         0.63361
C         45.22532        28.88946         0.57917
C         43.97366        29.53328         1.05009
C         45.30098        31.61080         1.54532
C         44.02628        30.87900         1.41784
C         45.26650        33.12041         1.37483
C         43.96078        33.80985         1.21664
C         45.20879        35.94331         1.08437
C         43.97363        35.22756         1.12255
C         45.22341        37.35544         1.23215
C         43.95292        38.13655         1.02829
C         45.18189        40.21612         1.95726
C         43.90512        39.47027         1.74749
C         45.17839        41.70040         1.88498
C         43.94991        42.37806         1.79250
C         45.16764        44.57106         2.18838
C         43.94211        43.81767         1.71096
C         45.20528        45.99998         1.66327
C         44.06934        46.64621         1.27165
C         45.35403        48.83714         1.09752
C         44.12550        48.04678         0.69893
C         45.37863        50.22768         0.79924
C         44.16149        50.92113         0.50633
C         45.44596        52.92461        -0.09681
C         44.19133        52.22369         0.01541
C         45.48230        54.25075        -0.62546
C         44.27575        54.86109        -1.15248
C         44.27651        56.14557        -1.72424
C         47.73332        18.77198         0.09012
C         46.55505        18.06698         0.10756
C         47.75379        20.19663         0.14587
C         46.52364        20.89653         0.22875
C         47.75367        23.02586         0.44330
C         46.53225        22.33467         0.37458
C         47.75837        24.47021         0.87624
C         46.47347        25.20771         0.58395
C         47.70585        27.33642         0.49726
C         46.48304        26.60797         0.49748
C         47.70251        28.76961         0.56735
C         46.51612        29.50511         0.79553
C         47.69343        31.69809         0.67412
C         46.64191        30.88169         1.41190
C         47.63499        33.07439         0.51409
C         46.47561        33.82967         0.90638
C         47.63330        36.01637         0.64548
C         46.44622        35.24248         0.86490
C         47.65906        37.37828         1.01203
C         46.43572        38.03743         1.36285
C         47.73725        40.22933         1.67075
C         46.46620        39.45807         1.78974
C         47.70117        41.72028         1.39967
C         46.42559        42.43059         1.82084
C         47.74509        44.51802         1.91791
C         46.46533        43.81133         1.92830
C         47.73976        45.99368         2.13505
C         46.46027        46.75920         1.90117
C         47.74412        48.92904         1.61314
C         46.52050        48.19587         1.52254
C         47.78882        50.28275         1.25531
C         46.60727        50.94557         0.82643
C         47.87347        53.03933         0.37259
C         46.63480        52.31651         0.39198
C         47.87072        54.35763        -0.14878
C         46.71435        54.94077        -0.63219
C         50.24635        20.26539        -0.05021
C         48.99778        20.92533         0.11313
C         50.22796        23.07029         0.18475
C         48.99118        22.34112         0.25881
C         50.21964        24.51218         0.27683
C         49.00206        25.21782         0.46898
C         50.17699        27.38110         0.44310
C         48.96626        26.64330         0.45540
C         50.17089        28.80615         0.38699
C         48.93423        29.47875         0.44745
C         50.10285        31.65931         0.02303
C         48.80678        30.91343         0.02389
C         50.02356        33.02560        -0.30414
C         48.76103        33.80663        -0.15075
C         50.01864        36.19268        -0.06713
C         48.78662        35.37489        -0.02570
C         50.08084        37.48929         0.49866
C         48.88524        38.15562         0.92177
C         50.14234        40.28425         1.00412
C         48.93946        39.53026         1.17151
C         50.19735        41.68322         1.27042
C         48.99405        42.35042         1.92978
C         50.25333        44.55708         1.85204
C         48.94778        43.85902         1.80532
C         50.30030        46.02665         1.82762
C         49.04971        46.74487         2.13370
C         50.30381        48.91293         1.62826
C         49.02150        48.24868         1.96113
C         50.32228        50.31644         1.44750
C         49.02901        51.09857         1.55617
C         50.32284        53.06299         0.72782
C         49.07984        52.42384         0.83209
C         51.42668        20.96810        -0.11601
C         52.68292        23.12935        -0.20741
C         51.45038        22.38986        -0.02792
C         52.68006        24.55210        -0.09935
C         51.45282        25.21277         0.18501
C         52.74526        27.43320         0.20463
C         51.44648        26.65052         0.46248
C         52.63081        28.87835        -0.02940
C         51.40599        29.53792         0.15474
C         52.53746        31.70676        -0.22810
C         51.33929        30.97378        -0.02927
C         52.47883        33.06411        -0.59297
C         51.19726        33.59173        -0.81578
C         52.47989        36.12466        -0.26572
C         51.23003        35.74142        -0.67577
C         52.61215        37.45598         0.39832
C         51.30956        38.20184         0.46421
C         52.56133        40.32323         0.39380
C         51.34427        39.59336         0.64872
C         52.53900        41.72270         0.50053
C         51.38687        42.38004         1.01924
C         52.68063        44.59656         0.98704
C         51.50065        43.80759         1.41387
C         52.73053        45.99426         1.28541
C         51.50765        46.71227         1.66886
C         52.76042        48.88967         1.72741
C         51.49502        48.15942         1.66274
C         52.79552        50.33126         1.50545
C         51.54444        51.02887         1.34167
C         51.51397        52.41852         1.04411
C         55.04849        23.18645        -0.81220
C         53.89848        22.47638        -0.52839
C         55.07288        24.60473        -0.78550
C         53.89269        25.29593        -0.37717
C         55.02777        27.45863        -0.79191
C         53.90911        26.71867        -0.33852
C         55.01231        28.90480        -0.76470
C         53.83544        29.56903        -0.37411
C         55.01736        31.80714        -0.83932
C         53.83273        31.02578        -0.25223
C         54.85306        33.24357        -1.14181
C         53.66058        33.87419        -0.87259
C         54.82311        36.14008        -1.08596
C         53.74980        35.32035        -0.40056
C         54.77056        37.53486        -0.98400
C         53.72041        38.24155        -0.27133
C         55.03265        40.33828        -0.32011
C         53.72147        39.61700        -0.11388
C         54.93247        41.84364        -0.34499
C         53.61563        42.54562        -0.16997
C         54.95429        44.66612         0.05087
C         53.75613        43.95837         0.35054
C         55.04359        46.04962         0.39745
C         53.93870        46.68798         1.01944
C         55.24417        48.87253         0.99190
C         54.08901        48.09183         1.42296
C         55.22785        50.25776         1.19925
C         54.04064        50.96596         1.43328
C         57.44750        24.68791        -1.58098
C         56.24409        25.34876        -1.18945
C         57.34386        27.51618        -1.68749
C         56.20238        26.76897        -1.23070
C         57.31389        28.93751        -1.76624
C         56.13965        29.65670        -1.29682
C         57.08511        31.79632        -2.28768
C         56.09056        31.03916        -1.44256
C         57.15655        33.29295        -1.98848
C         56.02302        33.98773        -1.56656
C         57.11188        36.15010        -2.01145
C         55.97350        35.44014        -1.59387
C         57.03188        37.61268        -2.18504
C         55.77327        38.33604        -1.71096
C         57.13235        40.51143        -1.65416
C         55.75799        39.85801        -1.57933
C         57.21090        41.87848        -1.30372
C         56.04667        42.56446        -0.73741
C         57.28686        44.70759        -0.78543
C         56.08445        43.99515        -0.53323
C         57.35481        46.11171        -0.49461
C         56.24886        46.78639         0.10064
C         57.54028        48.87949         0.03516
C         56.34707        48.18411         0.37213
C         58.54919        25.39477        -2.00128
C         59.65903        27.54957        -2.50834
C         58.52470        26.81621        -2.07120
C         59.62483        28.92556        -2.57469
C         58.45552        29.65668        -2.22107
C         59.55158        31.87169        -2.57944
C         58.42650        31.10290        -2.32223
C         59.51084        33.28301        -2.63610
C         58.35350        34.01249        -2.32739
C         59.47242        36.24926        -2.58345
C         58.33489        35.46983        -2.30627
C         59.44973        37.65446        -2.53565
C         58.27763        38.38254        -2.33582
C         59.45362        40.57667        -2.37652
C         58.26856        39.82395        -2.15166
C         59.50704        41.92929        -2.12152
C         58.39788        42.61902        -1.56694
C         59.61786        44.79002        -1.56434
C         58.44253        44.03729        -1.30400
C         59.67022        46.14668        -1.32907
C         58.55100        46.83129        -0.78481
C         58.61675        48.22357        -0.51783
O         52.35809        27.03231         1.55681
O         46.93432        46.44279         3.27185
O         45.11890        28.26964        -0.74788
O         34.38785        31.39487         2.48209
O         42.11803        31.36337         2.96363
O         45.35516        32.49584         2.72295
O         40.89637        28.82179         2.78084
O         43.34249        22.74317        -1.08270
O         41.63114        21.66828         1.87559
O         39.63123        35.59632        -0.32676
O         29.40174        34.54111        -1.67201
O         54.86995        31.56328         0.61369
O         55.92752        37.97750        -3.12130
O         49.12416        47.64402         3.29369
O         31.91441        37.89639         1.95273
O         37.59327        40.98024         2.91209
O         51.18676        43.97349         2.85065
O         39.57859        48.63751         2.23996
O         33.94620        47.75605         1.72192
O         27.87648        27.03694        -2.78579
O         44.43861        39.59699         3.08775
O         27.15551        33.40979         0.90275
O         53.64631        48.39281         2.77171
O         34.36130        28.84890         2.36478
O         47.32378        39.72995         2.96857
O         51.11057        34.71879        -1.62161
O         48.39048        34.66343        -1.26141
O         37.62556        23.72088        -0.64864
O         40.67726        51.23155         1.66896
O         34.83221        23.69170         2.11294
O         48.42595        30.80911        -1.40597
H         48.40592        31.71928        -1.77485
O         40.09272        22.89480        -1.17783
H         39.22782        23.30526        -1.42865
O         49.09195        42.07897         3.34427
H         49.86909        42.58153         3.68191
O         47.82395        24.41843         2.36400
H         48.67158        23.98555         2.60351
O         39.87014        53.90973        -3.90320
H         40.73618        54.29891        -4.15012
O         38.93711        37.85349         3.19347
H         38.36721        38.56427         3.56133
O         56.56553        31.72140        -3.67261
H         57.22276        32.16463        -4.25074
O         43.99077        38.53568        -0.39771
H         43.89638        37.72126        -0.93696
O         48.90512        51.44675         2.98552
H         48.89997        50.60688         3.49444
O         47.76417        41.87220        -0.05015
H         46.92180        41.55518        -0.43787
O         33.31977        21.72566         1.77369
H         33.43281        22.46891         2.41094
O         30.21188        44.71972         2.16982
H         30.99125        45.22838         2.48118
O         25.44234        27.52743        -3.46218
H         26.35706        27.61329        -3.82097
O         44.27911        47.86406        -0.76075
H         43.49445        47.36548        -1.07476
O         44.99558        44.64701         3.63434
H         45.71076        45.24105         3.97261
O         54.98556        40.37113        -2.69756
H         55.21031        39.80415        -3.47215
O         55.88871        39.97035         0.80412
H         55.54433        40.40890         1.60978
O         42.98637        50.51006         2.48057
H         42.06665        50.67356         2.80474
O         53.12099        42.69737        -1.56419
H         53.49296        41.95061        -2.08991
O         34.78295        25.12725        -1.27444
H         34.36594        25.87311        -1.77057
O         54.24632        35.08943         0.96343
H         53.98587        35.85837         1.52920
O         36.82327        25.06303         2.65829
H         36.16735        24.43649         3.04935
O         39.15549        22.38042         2.37009
H         40.03460        22.01126         2.63591
O         53.02702        37.28899         1.81384
H         53.15721        38.18628         2.18861
O         47.16253        30.66514         2.75612
H         46.81263        31.40345         3.31030
O         38.93752        44.10517         3.11095
H         38.29891        43.45452         3.47630
O         25.27842        46.14480         1.55375
H         25.28094        47.10088         1.77367
O         33.39197        27.58142        -1.56221
H         32.61089        27.93683        -2.04173
O         31.90313        39.37661        -1.38660
H         31.91829        40.26560        -1.80013
O         40.38867        45.73530        -0.81135
H         41.07544        45.05915        -0.99905
H         22.18218        26.88940        -1.43013
H         22.18768        29.33310        -1.59541
H         22.22200        31.20808        -1.86504
H         22.17890        33.62718        -1.68518
H         22.11897        35.50184        -1.29402
H         22.09041        37.92271        -1.15476
H         22.08608        39.82802        -1.08015
H         22.07502        42.24522        -0.90711
H         22.05008        44.11912        -0.68535
H         22.08253        46.56292        -0.83826
H         25.56657        23.54073        -1.02192
H         23.45141        24.79636        -1.10315
H         25.52152        49.86650        -0.96482
H         23.37800        48.66908        -0.98299
H         27.20506        22.56869        -1.62876
H         27.18588        50.68213        -1.42465
H         29.27630        21.32883        -1.28155
H         29.32936        51.77241        -1.75675
H         33.06041        19.25938        -1.22378
H         30.97217        20.46751        -1.40231
H         33.19686        53.57673        -2.55270
H         31.03256        52.52585        -2.23717
H         34.51065        18.16980        -0.49659
H         34.90335        54.25247        -3.04444
H         36.60540        16.96205        -0.37257
H         37.09155        55.25307        -3.42941
H         40.35999        14.81285        -0.24837
H         38.21688        15.99966        -0.20129
H         40.64947        57.72683        -2.79866
H         38.58022        56.43069        -2.99540
H         42.81184        14.81577        -0.19360
H         43.12428        57.75107        -2.60627
H         44.95101        16.01414        -0.07677
H         45.20486        56.72874        -1.78004
H         48.67591        18.21172         0.04261
H         46.59707        16.97062         0.07241
H         48.79647        54.94665        -0.16889
H         46.77098        55.96651        -1.01921
H         50.28467        19.17245        -0.14309
H         50.38563        54.09314         0.35162
H         52.36062        20.40826        -0.25284
H         52.45247        52.98136         0.96199
H         55.95010        22.62431        -1.08786
H         53.93788        21.38123        -0.58983
H         56.13705        50.84800         1.02333
H         54.09551        52.06282         1.42246
H         57.50891        23.59243        -1.54440
H         57.62086        49.95559         0.23552
H         59.46668        24.86343        -2.29295
H         60.56823        27.00470        -2.80062
H         60.51542        29.46083        -2.93072
H         60.53074        31.39090        -2.71621
H         60.44643        33.80998        -2.86683
H         60.43414        35.76174        -2.79201
H         60.40737        38.17800        -2.65981
H         60.34281        40.08625        -2.79367
H         60.43733        42.46485        -2.34966
H         60.51107        44.29441        -1.96556
H         60.58843        46.71103        -1.54569
H         59.53973        48.77194        -0.75423
