         762
 CSIRO Nanostructure Databank - Neutral Graphene Oxide Data Set
C         23.88486        25.00674        -2.86882
C         23.04034        25.94067        -3.36647
C         23.24311        27.39844        -1.41332
C         22.69475        27.13975        -2.62848
C         22.85812        28.56245        -0.52043
C         21.75307        29.39944        -1.10719
C         22.93219        31.54899        -0.89120
C         21.78503        30.75459        -1.21310
C         22.98851        32.94414        -1.14395
C         21.81623        33.66281        -1.52348
C         23.02741        35.77375        -1.52239
C         21.82606        35.02962        -1.66209
C         22.99237        37.23285        -1.53423
C         21.76995        37.94881        -1.61330
C         22.92301        40.09325        -1.37727
C         21.74018        39.32804        -1.53211
C         22.88016        41.54099        -1.31672
C         21.69883        42.25218        -1.13154
C         22.82593        44.39662        -0.70310
C         21.66849        43.63376        -0.83647
C         22.83672        45.77972        -0.29412
C         21.69033        46.41880         0.14775
C         22.80424        48.58251         0.31312
C         21.66163        47.81257         0.40601
C         26.39597        23.38442        -2.11983
C         25.85715        24.45688        -1.25094
C         24.57612        25.20583        -1.57699
C         25.47179        27.25567        -0.22344
C         24.31905        26.52876        -0.89330
C         25.42978        28.73516        -0.04736
C         24.09291        29.39489        -0.12220
C         25.37228        31.62746        -0.20471
C         24.09324        30.89977        -0.27183
C         25.43992        32.95533        -0.59412
C         24.22689        33.66037        -1.02555
C         25.51526        35.76864        -1.37321
C         24.23043        35.04812        -1.29097
C         25.47107        37.27448        -1.38463
C         24.17743        37.98905        -1.36983
C         25.41778        40.15540        -1.17778
C         24.16620        39.40324        -1.29724
C         25.42934        41.56794        -1.25232
C         24.14448        42.29073        -1.40487
C         25.37169        44.36177        -0.47934
C         24.10758        43.77977        -1.08193
C         25.38962        45.86813        -0.45998
C         24.07153        46.60847        -0.62138
C         25.26395        48.70783         0.10573
C         24.05961        48.00255        -0.01952
C         25.34201        50.09553         0.42796
C         28.15939        23.06868        -0.47204
C         27.50030        22.71510        -1.71900
C         28.02973        24.45686        -0.00468
C         26.88855        25.12935        -0.41273
C         28.00020        27.34399         0.17062
C         26.80339        26.59410        -0.30433
C         27.80494        28.74749         0.63976
C         26.55313        29.45162         0.25251
C         27.86125        31.63751         0.36005
C         26.51280        30.95201         0.53679
C         27.88253        33.02400        -0.03583
C         26.71407        33.64818        -0.51853
C         28.02604        35.82149        -0.67170
C         26.78498        35.02894        -1.01456
C         27.88572        37.29583        -0.49242
C         26.63118        38.01920        -0.81510
C         27.86517        40.20011        -0.94883
C         26.65122        39.49212        -0.99578
C         27.88782        41.61327        -1.08086
C         26.64421        42.28239        -1.20753
C         27.85754        44.56045        -1.22749
C         26.59071        43.77253        -1.17420
C         27.87838        45.89955        -0.56568
C         26.57729        46.53486        -0.32966
C         27.82290        48.68571         0.34448
C         26.53661        47.95070         0.12659
C         27.81392        50.17190         0.38257
C         26.53304        50.78348         0.54586
C         30.47100        20.29680         0.55246
C         29.37979        20.84543        -0.08602
C         30.29181        23.12239         1.55391
C         28.83668        22.11660         0.27310
C         30.26406        24.49736         1.27456
C         29.13558        25.17513         0.67612
C         30.32901        27.37403         1.00827
C         29.16451        26.58686         0.66072
C         30.33526        28.79566         0.96972
C         29.04939        29.53006         0.95584
C         30.30740        31.68734         0.78053
C         29.04398        30.98946         0.70136
C         30.29660        33.08663         0.61091
C         29.12786        33.75805         0.13863
C         30.34151        35.93816         0.25277
C         29.16980        35.16292        -0.02025
C         30.28209        37.41449         0.17316
C         29.11906        38.06456        -0.37423
C         30.43748        40.21826        -0.78829
C         29.13454        39.44549        -0.82784
C         30.35493        41.69488        -0.91740
C         29.15852        42.34864        -1.08779
C         30.40090        44.58970        -1.15216
C         29.15765        43.81275        -1.56401
C         30.34815        45.90687        -0.75574
C         29.08297        46.55075        -0.37909
C         30.35700        48.76526         0.09279
C         29.11494        47.94469         0.15233
C         30.26255        50.24195        -0.22514
C         29.00196        50.91189         0.27691
C         30.23480        53.03637         0.28580
C         29.05380        52.33158         0.38426
C         32.69930        18.75508         1.49001
C         32.67357        20.13922         1.63136
C         31.46544        20.92654         1.39709
C         32.69177        23.01699         2.12362
C         31.45110        22.30934         1.72805
C         32.72027        24.51463         2.03858
C         31.44618        25.27951         1.68139
C         32.73717        27.40424         1.52480
C         31.53943        26.70466         1.32828
C         32.77396        28.81472         1.31324
C         31.54787        29.51795         1.08881
C         32.78307        31.65037         1.04387
C         31.54706        30.96728         1.00905
C         32.81211        33.12312         1.12444
C         31.49660        33.88158         0.92878
C         32.81299        36.02017         0.58114
C         31.54876        35.31786         0.59133
C         32.86506        37.41795         0.32896
C         31.62944        38.21880         0.23552
C         32.89879        40.28065        -0.39634
C         31.66527        39.58167        -0.28781
C         32.90867        41.63487        -0.78940
C         31.66422        42.35538        -1.15994
C         32.98666        44.60167        -1.26207
C         31.67766        43.86745        -1.41044
C         32.93736        46.07243        -0.99195
C         31.59032        46.74387        -0.79150
C         32.80853        48.83164        -0.17059
C         31.62254        48.12270        -0.29883
C         32.78235        50.28714         0.05681
C         31.55569        50.98309         0.05722
C         32.74300        53.14879         0.20550
C         31.51420        52.39680         0.16402
C         32.77185        54.57073         0.20272
C         35.14975        18.60027         1.34552
C         33.89754        18.00285         1.40221
C         35.23782        20.03896         1.66933
C         33.96297        20.79912         1.94863
C         35.22286        23.04583         1.74481
C         34.00712        22.29261         2.09249
C         35.21392        24.46640         1.70604
C         34.00440        25.19142         1.87735
C         35.28021        27.41340         1.80142
C         33.95887        26.66556         1.93398
C         35.25251        28.82831         1.38699
C         34.02888        29.52933         1.28621
C         35.27336        31.66982         1.04583
C         34.02824        30.95332         1.09587
C         35.28731        33.12912         0.89269
C         34.07036        33.85310         0.86779
C         35.28540        35.96342         0.49735
C         34.04712        35.26515         0.66487
C         35.29522        37.38070         0.37059
C         34.10022        38.12124         0.23557
C         35.34628        40.22613        -0.09993
C         34.13519        39.55782        -0.05923
C         35.45048        41.60782        -0.60866
C         34.19130        42.33962        -0.97544
C         35.39011        44.56258        -0.34866
C         34.24759        43.84748        -0.99575
C         35.33602        45.96375        -0.17711
C         34.13491        46.74045        -0.45533
C         35.25742        48.80817         0.30843
C         34.05741        48.10205        -0.16988
C         35.25912        50.30946         0.45182
C         33.99164        51.03796         0.21103
C         35.23932        53.21345         0.47265
C         33.98036        52.43854         0.25973
C         35.22115        54.68387         0.27106
C         33.96016        55.29974         0.20336
C         37.72246        15.80830         1.23927
C         36.48648        16.50939         1.35126
C         37.63361        18.63669         0.77400
C         36.38885        17.87873         1.19678
C         37.64619        20.11993         1.11603
C         36.47964        20.79674         1.36458
C         37.67784        23.05433         1.04490
C         36.39381        22.28592         1.27719
C         37.69910        24.49717         1.35942
C         36.47503        25.20287         1.53264
C         37.72630        27.32889         1.46429
C         36.50355        26.61537         1.59642
C         37.71148        28.75369         1.30088
C         36.49359        29.49904         1.20026
C         37.76232        31.64298         1.13346
C         36.47846        30.93183         1.06433
C         37.80194        33.17551         0.96401
C         36.51074        33.85409         0.74424
C         37.78764        35.93462         0.24715
C         36.52570        35.23934         0.50645
C         37.82325        37.30451         0.24668
C         36.58607        38.07424         0.49141
C         37.88512        40.26610        -0.01960
C         36.60290        39.57917         0.29514
C         37.87567        41.71126        -0.06732
C         36.64269        42.40923        -0.23099
C         37.76174        44.46719         0.49909
C         36.57096        43.80162        -0.06629
C         37.76179        45.99979         0.55521
C         36.53113        46.70702         0.15790
C         37.77903        48.85957         0.16485
C         36.53382        48.08832         0.19371
C         37.73259        50.32344         0.35938
C         36.56377        51.02026         0.36986
C         37.89348        53.29076         0.28992
C         36.56943        52.50565         0.50723
C         37.68297        54.71101        -0.26710
C         36.45346        55.41855         0.17710
C         37.71686        57.53584         0.38907
C         36.50863        56.81116         0.32773
C         40.10044        14.39819         0.40793
C         40.19033        15.74078         0.83263
C         38.94683        16.46500         1.18551
C         39.92566        18.69718         1.68134
C         38.88274        17.92534         1.24478
C         40.08589        20.10537         1.40773
C         38.93765        20.80862         1.09841
C         40.26288        22.97585         1.24034
C         38.97070        22.28237         0.95910
C         40.20345        24.41843         1.62893
C         38.93372        25.18602         1.43354
C         40.23792        27.30899         1.59987
C         38.94969        26.58708         1.48642
C         40.26868        28.77848         1.32695
C         38.97645        29.41866         0.96089
C         40.30004        31.62481         0.84590
C         39.00687        30.91821         0.79313
C         40.28363        33.07060         0.70646
C         39.05410        33.78464         0.56156
C         40.34073        35.85444        -0.11153
C         38.99639        35.10409        -0.18331
C         40.33987        37.34819        -0.24497
C         39.04465        38.07434        -0.09649
C         40.36144        40.22718        -0.20703
C         39.05830        39.55481        -0.02652
C         40.36677        41.73532        -0.08223
C         39.08677        42.42631         0.05611
C         40.27762        44.49500         0.60845
C         39.07434        43.80291         0.38885
C         40.25435        45.94598         0.93899
C         39.02951        46.69252         0.63673
C         40.34082        48.85938         0.64135
C         39.10192        48.11087         0.34831
C         40.32116        50.32742         0.56036
C         39.02408        51.05739         0.43626
C         40.23542        52.80871        -0.72466
C         39.02937        52.38667        -0.20732
C         40.25647        55.00435        -0.71042
C         38.94433        55.60958        -0.48754
C         40.23977        57.50060         0.51551
C         38.94990        56.95056         0.10306
C         40.31141        58.80950         1.04270
C         42.33704        14.43470        -0.53812
C         41.16773        13.75105        -0.22148
C         42.49923        15.77536        -0.12424
C         41.46270        16.37478         0.65184
C         42.67002        18.55202         0.72897
C         41.76679        17.65931         1.23371
C         42.74578        19.95298         1.25792
C         41.44963        20.72426         1.74527
C         42.74775        22.88402         1.29591
C         41.52118        22.20761         1.42336
C         42.79731        24.36064         1.53063
C         41.51688        25.12299         1.70446
C         42.74791        27.30615         0.95600
C         41.49716        26.56143         1.29980
C         42.75449        28.78908         0.92230
C         41.53369        29.47386         0.98345
C         42.77501        31.55572         0.53698
C         41.48854        30.89044         0.79734
C         42.77377        33.05459         0.52993
C         41.50578        33.75420         0.69994
C         42.71681        35.98884         1.00192
C         41.57609        35.19141         0.38276
C         42.87864        37.35424         0.36519
C         41.65786        38.06839        -0.09690
C         42.90276        40.25426         0.24187
C         41.57771        39.51853         0.37363
C         42.86980        41.72162         0.24069
C         41.60120        42.43314         0.28701
C         42.78554        44.58301         0.40263
C         41.52845        43.80382         0.52598
C         42.79382        46.06294         0.53794
C         41.54170        46.73806         0.96731
C         42.79929        48.93098         0.74421
C         41.53515        48.21106         0.79947
C         42.80555        50.28578         0.41402
C         41.58568        51.00014         0.18961
C         42.75646        53.10644        -0.56199
C         41.53496        52.25937        -0.40300
C         42.71020        54.64950        -0.41036
C         41.44573        55.42362        -0.17963
C         42.69634        57.30674         0.83483
C         41.45409        56.74004         0.43101
C         42.70653        58.61725         1.34768
C         41.52396        59.35210         1.45398
C         44.78114        16.01946        -1.11332
C         43.66380        16.56865        -0.48269
C         44.97408        18.79752        -0.41772
C         43.66029        18.02753        -0.23104
C         45.14454        20.13141         0.20250
C         43.98084        20.74486         0.90628
C         45.14864        22.93278         0.52258
C         43.94989        22.21045         0.98845
C         45.19435        24.42161         0.62900
C         44.04609        25.13128         1.26331
C         45.22687        27.24152         0.82531
C         44.04258        26.60185         1.04668
C         45.26056        28.69753         0.42381
C         44.01176        29.46181         0.80882
C         45.28071        31.59576         0.74919
C         44.05434        30.85783         0.75905
C         45.30951        32.99263         0.70235
C         44.04428        33.73287         0.90117
C         45.34562        35.91265         0.88144
C         44.05210        35.21730         1.09300
C         45.35539        37.39128         1.02855
C         44.06065        38.14988         0.84203
C         45.35598        40.34650         0.87131
C         44.07091        39.59920         0.53519
C         45.35722        41.67416         0.10541
C         44.06151        42.40429         0.32790
C         45.35394        44.61603         0.44558
C         44.07479        43.85214         0.56069
C         45.26087        46.08310         0.17848
C         44.06152        46.81755         0.66325
C         45.35327        48.92709         0.80326
C         44.05168        48.18714         0.74925
C         45.30200        50.45194         0.89729
C         44.08973        50.98189         0.15256
C         45.30169        53.21925        -0.02979
C         44.07481        52.41471        -0.27702
C         45.23345        54.59445        -0.06106
C         43.96320        55.30611         0.04045
C         45.19854        57.10024         1.16348
C         43.94071        56.55331         0.65361
C         45.97331        16.73204        -1.31904
C         47.42309        18.70834        -0.88915
C         46.16002        18.05473        -0.87639
C         47.61922        20.02947        -0.17544
C         46.34269        20.80008         0.07827
C         47.59857        22.94907         0.05518
C         46.43262        22.22588         0.29855
C         47.68273        24.38817         0.30129
C         46.49530        25.11687         0.67701
C         47.73027        27.22832         0.94457
C         46.47588        26.49739         0.80713
C         47.71763        28.70903         0.87700
C         46.55427        29.40169         0.78200
C         47.81964        31.60523         0.75041
C         46.54774        30.87499         1.13772
C         47.76330        33.04032         0.55373
C         46.53296        33.73639         0.63537
C         47.74275        35.92317         0.29720
C         46.51003        35.19717         0.63427
C         47.76144        37.31206         0.26650
C         46.70322        38.10704         1.00933
C         47.80941        40.24293         0.27529
C         46.62266        39.56228         0.58052
C         47.85392        41.73807         0.34559
C         46.60609        42.50173         0.30881
C         47.83934        44.60346        -0.13395
C         46.62388        43.87604         0.19562
C         47.76527        46.06689        -0.42813
C         46.50329        46.82421        -0.14168
C         47.86585        48.97970         0.13659
C         46.60537        48.23124         0.35799
C         47.87544        50.39905         0.57744
C         46.59074        51.15962         0.49112
C         47.80693        53.32619         0.30972
C         46.56039        52.51186         0.22871
C         47.77130        54.72102        -0.16327
C         46.45908        55.46875        -0.20490
C         46.39572        56.59075         0.81084
C         49.76033        18.79719        -1.58523
C         48.57454        18.09964        -1.43128
C         49.85000        20.19929        -1.31129
C         48.76110        20.86340        -0.72365
C         49.88582        23.04329        -0.88797
C         48.79169        22.28595        -0.47860
C         49.89765        24.55851        -0.86796
C         48.86878        25.09035         0.09178
C         50.25679        27.21674         0.32742
C         49.03104        26.44520         0.60500
C         50.29743        28.63085         0.77643
C         49.01424        29.42266         1.01642
C         50.27885        31.56455         0.53310
C         49.01643        30.89697         0.78015
C         50.25890        33.05263         0.49630
C         48.97304        33.77954         0.30594
C         50.19143        35.85320        -0.37344
C         48.94840        35.15196         0.06477
C         50.21769        37.35095        -0.52903
C         48.91864        38.08337        -0.22020
C         50.21921        40.20797        -0.53101
C         48.99859        39.53351        -0.00577
C         50.23058        41.70051        -0.64883
C         49.11836        42.49700        -0.03881
C         50.23075        44.64232        -0.94769
C         49.02523        43.93565        -0.33861
C         50.32676        46.11047        -0.42514
C         49.01388        46.86546        -0.59717
C         50.28694        49.02243        -0.33101
C         49.01460        48.32048        -0.23029
C         50.35885        50.38968        -0.06497
C         49.20400        51.13109         0.48833
C         50.34960        53.38095        -0.11822
C         49.17769        52.64026         0.41864
C         50.20008        54.68689        -0.50290
C         48.93194        55.36024        -0.48766
C         52.19214        20.34427        -2.17565
C         51.03635        20.93967        -1.70976
C         52.30506        23.19174        -1.78350
C         50.98580        22.40499        -1.61380
C         52.40898        24.54114        -1.16824
C         51.28049        25.18826        -0.69454
C         52.64995        27.22449        -0.29648
C         51.37177        26.56218        -0.21605
C         52.77124        28.65766         0.06038
C         51.55632        29.41144         0.52074
C         52.68966        31.58901        -0.10635
C         51.46303        30.88110         0.34966
C         52.81643        33.03859         0.12663
C         51.54685        33.78190         0.32502
C         52.77940        35.93120        -0.22487
C         51.49938        35.14810        -0.27540
C         52.67888        37.38059         0.13184
C         51.48578        38.10721        -0.34234
C         52.79858        40.20288        -0.33443
C         51.52572        39.48630        -0.42271
C         52.83020        41.64230        -0.71897
C         51.54096        42.40684        -0.85547
C         52.84903        44.60916        -0.76421
C         51.53839        43.89769        -0.64269
C         52.84304        46.06664        -1.21435
C         51.49087        46.85900        -1.08605
C         52.45824        49.14685        -1.37883
C         51.42326        48.33284        -0.92018
C         52.73612        50.44445        -0.88807
C         51.63769        51.10523        -0.18935
C         52.83817        53.25384        -0.84187
C         51.66206        52.68572        -0.19311
C         53.40003        21.07719        -2.35859
C         54.83390        23.13893        -2.18325
C         53.51536        22.40946        -2.04868
C         54.88792        24.46663        -1.45640
C         53.72129        25.15642        -1.10279
C         55.08008        27.21034        -0.75190
C         53.79929        26.53692        -0.69238
C         55.11533        28.66349        -0.65903
C         53.97811        29.37752        -0.41204
C         55.23009        31.60432        -0.40735
C         53.95313        30.85864        -0.48508
C         55.28052        32.97637        -0.09819
C         54.01388        33.69211         0.03377
C         55.24557        35.85794         0.53433
C         54.04937        35.18009        -0.04749
C         55.24266        37.37896         0.60529
C         53.94902        38.14263         0.43206
C         55.27906        40.26975         0.00841
C         53.99132        39.56606         0.01063
C         55.29713        41.68079        -0.22650
C         54.08488        42.42290        -0.55702
C         55.38797        44.51599        -0.87323
C         54.10058        43.78270        -0.78170
C         55.39421        46.00348        -0.96502
C         54.13759        46.77031        -1.15129
C         55.38603        48.94037        -1.16845
C         54.31782        48.07676        -1.57716
C         55.26402        50.33460        -1.08359
C         54.00373        51.07696        -1.04603
C         53.97688        52.51558        -1.05238
C         57.24500        22.89676        -1.67056
C         56.04974        22.30139        -1.88585
C         57.36733        24.33091        -1.51742
C         56.17744        25.08962        -1.32740
C         57.55798        27.20623        -1.19829
C         56.23783        26.49229        -1.01875
C         57.60759        28.58809        -0.59080
C         56.40915        29.36316        -0.86233
C         57.75486        31.53823        -0.43379
C         56.45683        30.88743        -0.70561
C         57.76734        32.97512        -0.16473
C         56.52536        33.67002         0.03065
C         57.86787        35.88023         0.70833
C         56.53907        35.07524         0.54333
C         57.71839        37.25768         0.02714
C         56.54135        38.09849         0.41469
C         57.67110        40.35232         0.59309
C         56.51746        39.59658         0.26180
C         57.59549        41.75920         0.56366
C         56.47712        42.40631         0.02040
C         57.64352        44.65546         0.36600
C         56.68346        43.81685        -0.47563
C         57.50664        46.15395         0.49539
C         56.62787        46.77575        -0.57776
C         57.50003        49.04484         0.29301
C         56.62075        48.26607        -0.67735
C         57.57906        50.47266        -0.19937
C         56.50849        51.05586        -0.77677
C         59.86061        24.25448        -1.63022
C         58.67496        24.93131        -1.39066
C         60.10915        27.00733        -0.79789
C         58.75223        26.32772        -0.90476
C         60.17954        28.51909        -0.67055
C         58.87101        29.30144        -0.45724
C         60.24650        31.41429        -0.47514
C         58.90407        30.78684        -0.49156
C         60.27300        32.94557        -0.36532
C         58.99027        33.64875        -0.10945
C         60.24265        35.81609        -0.47529
C         59.08197        35.09214         0.18135
C         60.08738        37.28411        -0.69815
C         58.71817        37.79940        -0.73683
C         60.24784        40.34019         0.12408
C         59.04880        39.78536         0.93020
C         60.45227        41.82067         0.06786
C         58.54755        42.60742         1.34415
C         60.00326        44.73035         1.10957
C         58.73372        44.03092         0.90261
C         59.99787        46.20293         1.02657
C         58.81344        46.89961         0.67444
C         60.00623        49.01219         0.77854
C         58.81591        48.31042         0.54643
C         61.12836        24.91253        -1.58859
C         61.26542        26.23148        -1.25923
C         61.26364        29.30500        -1.29384
C         61.30954        30.64955        -1.17706
C         61.30548        33.70645        -1.10849
C         61.20897        35.03909        -1.28077
C         61.17111        38.10690        -0.62258
C         61.15390        39.55909        -0.52350
C         61.18882        42.53277         0.98275
C         61.16140        43.98188         1.12581
C         61.17495        46.94541         1.24796
C         61.17514        48.33092         1.12620
O         51.31502        23.11457        -2.86955
O         24.56256        24.07843        -0.64498
O         40.23777        53.91427        -1.57509
O         44.02492        34.31570         2.25196
O         44.80932        44.28015         1.76955
O         35.13615        49.44588         1.64326
O         26.88667        37.62640         0.59061
O         56.44927        30.23995        -2.05970
O         33.34984        22.62811         3.37141
O         39.67368        50.97186         1.76392
O         29.98641        39.56664        -2.05039
O         50.98796        33.65480         1.66685
O         48.70958        50.61402         1.76556
O         40.28839        28.25964         2.70791
O         43.74253        24.69151         2.62445
O         34.73957        20.22196         3.05212
O         37.52026        45.14319         1.76300
O         55.68686        35.20154         1.74550
O         35.91582        52.87962         1.76123
O         37.89637        32.50843         2.28596
O         24.19230        43.32803        -2.45145
O         44.84871        23.82737        -0.65992
O         53.31342        48.65583        -2.36163
O         59.79286        28.91370         0.66321
O         48.56950        26.65218         1.98000
O         42.65555        37.61093        -1.05533
O         34.63958        27.21659         3.11104
O         43.88941        18.84629        -1.42370
O         40.98931        18.05494         2.32830
O         53.00379        31.29980        -1.53584
O         43.80172        20.08461         2.26884
O         48.82573        42.17870         1.35468
O         57.33063        47.43542        -1.66343
O         28.15838        29.01669         2.02480
O         39.78825        22.77767        -0.15986
O         48.53620        53.21623         1.58497
O         52.22820        41.94114        -2.03972
O         40.52183        41.01596        -1.39576
O         27.82645        35.28646        -2.01928
O         52.58097        28.98846         1.49991
O         39.59573        37.71570        -1.44428
O         44.33586        51.31265        -1.24081
O         25.68634        36.53235        -2.62130
O         23.77756        30.20770         1.05588
O         48.25408        46.47698        -1.77746
O         36.61820        38.99599         1.64330
O         42.82302        32.31228        -0.73671
O         55.56845        45.17244        -2.18871
O         46.24659        48.33495         1.80002
O         49.87532        40.89754        -1.80772
O         33.93961        44.35359        -2.34050
O         35.05371        41.74903        -2.01658
O         41.33123        39.42388         1.76131
O         42.82325        53.99232        -1.71174
O         27.72220        27.24431        -1.27967
O         51.98769        51.89185         0.98042
O         26.93121        44.50723        -2.38271
O         27.11647        48.07443         1.48808
O         38.92628        30.03325        -0.37469
O         29.92829        48.21108         1.37232
O         59.40849        26.44409         0.37197
O         49.35824        37.77356        -1.61033
O         60.70496        32.08088         0.73865
O         56.01794        37.80439         1.76704
O         45.53112        46.54019        -1.19991
O         36.80115        22.74617        -0.08471
O         38.60022        48.49731        -1.01440
O         51.97118        46.34318        -2.34702
O         31.69935        42.94436        -2.51533
O         59.23088        38.95634         1.78867
O         53.01228        37.77909         1.50310
O         52.21048        44.35251         0.55535
O         58.89108        42.24023         2.46204
O         29.06176        22.46719         1.61763
O         24.49137        26.51269         0.54809
O         40.96624        46.27097         2.22124
O         60.29131        35.44009         0.93054
O         42.70827        45.43485        -0.80259
O         32.27371        46.73138        -2.10868
O         31.85292        25.08436         3.08257
O         41.33638        35.32285        -1.06574
O         41.88420        26.70920        -0.10984
O         49.81380        28.93684         2.13332
O         32.04686        33.62391         2.26889
O         53.66942        35.69716        -1.37244
O         44.53249        37.82434         2.19706
O         30.75989        38.07700         1.40609
O         38.04036        55.19069        -1.57663
O         40.81197        24.75861         2.92192
O         50.80785        35.19531        -1.55189
O         45.40192        41.28218        -1.30022
H         45.25940        42.07396        -1.86049
O         50.53482        46.07564         1.00101
H         50.55595        46.99372         1.34353
O         22.31235        27.99982         0.69706
H         22.43515        28.67354         1.40227
O         57.67919        27.46437        -2.64869
H         57.01664        28.14963        -2.89235
O         37.62167        18.61379        -0.69430
H         37.67186        17.67415        -0.97082
O         29.25813        43.73858        -3.00273
H         28.34832        43.86356        -3.36507
O         56.72325        46.33094         1.74065
H         57.22328        45.90595         2.47154
O         58.47074        38.91199        -1.49073
H         59.29091        39.21116        -1.93301
O         58.10466        36.05430         2.10044
H         57.34273        36.55756         2.47189
O         38.38417        53.61762         1.62463
H         38.42507        52.79078         2.15608
O         57.45680        43.61624        -1.70169
H         57.08420        44.24478        -2.37169
O         47.19273        38.13449         2.38705
H         46.42916        38.36738         2.96176
O         41.48308        20.68505         3.19606
H         42.43357        20.62332         3.45939
O         48.06066        19.65142         1.19007
H         48.89602        19.14528         1.09467
O         30.12627        50.24748        -1.69152
H         30.12857        51.18241        -1.98818
O         56.79660        49.10091         1.56467
H         56.69124        48.17161         1.89026
O         25.37351        43.92330         0.91154
H         25.94772        44.52244         1.43411
O         49.44906        24.99045        -2.19900
H         50.01154        24.49708        -2.84801
O         59.89195        42.38251        -1.03505
H         59.99215        43.35759        -1.01550
O         45.31990        40.61944         2.29183
H         44.86189        39.87038         2.73547
O         26.20251        31.10185         1.95424
H         25.30712        30.70707         2.09183
O         45.08542        50.77469         2.29028
H         45.75852        50.28314         2.81205
O         38.76435        34.76538        -1.57698
H         39.64701        34.72567        -2.01349
O         54.92183        23.48236        -3.61354
H         55.76112        23.97314        -3.74525
O         46.37381        56.08411        -1.52462
H         45.49012        56.50254        -1.60268
O         42.25835        36.23929         2.34597
H         42.94288        36.77751         2.80759
O         23.98770        46.83624        -2.07572
H         23.08290        47.15791        -2.27474
O         46.51587        30.89420         2.60817
H         47.36079        30.51736         2.93778
O         50.07616        44.61068        -2.36932
H         49.32731        45.20738        -2.61230
O         45.25287        28.69294        -1.04485
H         44.42626        28.25709        -1.34531
H         24.05321        24.06774        -3.41418
H         22.54327        25.76960        -4.33150
H         21.93046        27.80877        -3.04888
H         20.82180        28.86794        -1.35061
H         20.89444        31.25635        -1.61608
H         20.86399        33.13153        -1.64369
H         20.88279        35.53858        -1.89683
H         20.81875        37.41640        -1.74067
H         20.77004        39.83593        -1.61349
H         20.73917        41.71744        -1.11661
H         20.68770        44.08905        -0.63997
H         20.76990        45.84188         0.31424
H         22.75393        49.64083         0.60357
H         20.71878        48.27382         0.72959
H         25.83567        23.06565        -3.00927
H         24.41052        50.67104         0.52056
H         27.85768        21.83581        -2.27488
H         26.48057        51.86731         0.71816
H         30.74097        19.29129         0.19855
H         28.93251        20.28480        -0.92046
H         30.19226        54.12864         0.38972
H         28.13194        52.89358         0.58876
H         31.75810        18.19582         1.39853
H         31.82907        55.13072         0.14789
H         33.80690        16.91691         1.25886
H         33.89588        56.39311         0.11452
H         37.67051        14.71176         1.24641
H         35.58435        15.91937         1.56902
H         37.66912        58.56570         0.76912
H         35.58880        57.35006         0.59518
H         39.16768        13.83487         0.53888
H         39.40222        59.42014         1.11891
H         43.12060        13.92680        -1.11527
H         41.05167        12.70273        -0.52950
H         43.64785        59.09098         1.65336
H         41.55485        60.37435         1.85464
H         44.77600        14.95656        -1.39219
H         45.16222        57.94363         1.86651
H         46.81953        16.18054        -1.75010
H         47.32963        57.02534         1.19560
H         50.61612        18.27819        -2.03498
H         48.52914        17.06598        -1.80070
H         51.07019        55.25356        -0.86274
H         48.89762        56.40989        -0.81027
H         52.23830        19.25729        -2.32389
H         52.82922        54.31456        -1.13075
H         54.28629        20.50918        -2.67319
H         54.86775        53.04773        -1.41613
H         58.14293        22.27436        -1.55138
H         55.99604        21.20704        -1.96960
H         58.47293        51.07891         0.00570
H         56.56327        52.12441        -1.03236
H         59.84501        23.20453        -1.95353
H         60.03058        50.10721         0.70256
H         62.01586        24.33834        -1.89033
H         62.24632        26.72094        -1.34229
H         62.04465        28.77602        -1.86042
H         62.17314        31.19220        -1.58808
H         62.11106        33.15209        -1.61073
H         61.91834        35.57934        -1.92539
H         62.16960        37.64206        -0.59176
H         62.03034        40.06507        -0.96587
H         61.74551        41.96439         1.74316
H         62.12484        44.48034         1.32426
H         62.10344        46.43399         1.53515
H         62.09939        48.89500         1.31242
