         300
 CSIRO Nanostructure Databank - Neutral Graphene Oxide Data Set
C         30.34259        31.60331         0.05352
C         30.50514        32.80051         0.42242
C         30.23040        36.04663         0.79210
C         30.23529        37.24789         1.06803
C         30.17977        40.49342         1.09169
C         30.24483        41.71165         0.86665
C         32.63607        29.21345        -1.67395
C         31.54080        29.63383        -1.25219
C         32.63675        31.76430        -0.83991
C         31.56965        30.75854        -0.22395
C         32.63159        33.22201        -0.45859
C         31.46904        33.80394         0.30501
C         32.63170        35.96366         0.75287
C         31.36023        35.29400         0.16277
C         32.61030        37.37085         1.29551
C         31.27741        38.17249         1.62850
C         32.62632        40.37156         1.11316
C         31.31882        39.57032         1.05531
C         32.62755        41.87667         1.05589
C         31.38074        42.58427         0.86579
C         32.65845        44.47313         0.50004
C         31.50482        43.96914         0.64548
C         35.45453        27.58507        -1.87364
C         35.14970        28.95458        -1.58200
C         33.98872        29.66832        -1.62755
C         35.17688        31.76748        -0.76644
C         33.95006        31.20913        -1.47503
C         35.19461        33.21153        -0.36265
C         33.92261        34.07195        -0.59091
C         35.23929        36.02065         0.54828
C         33.94779        35.27520         0.37460
C         35.16808        37.52157         0.76424
C         33.86862        38.19960         1.09337
C         35.13609        40.40853         1.66025
C         33.82079        39.59922         1.71767
C         35.14347        41.90028         1.40771
C         33.86977        42.57611         0.99461
C         35.20885        44.51344         0.02770
C         33.93940        43.95740         0.64800
C         35.35270        46.02916        -0.05369
C         37.75003        27.24822        -1.18466
C         36.48998        26.90558        -1.88017
C         37.67441        28.72868        -0.77885
C         36.41698        29.55720        -1.00431
C         37.67363        31.65093        -0.32248
C         36.49340        31.09425        -1.14294
C         37.87337        33.20395        -0.45881
C         36.51658        33.97414        -0.38395
C         37.82460        36.11039         0.36857
C         36.51812        35.43775        -0.02073
C         37.77296        37.55458         0.81422
C         36.46457        38.27293         0.96535
C         37.75704        40.38843         1.58777
C         36.44819        39.64000         1.62388
C         37.79455        41.89379         1.44195
C         36.48231        42.64426         1.30564
C         37.79110        44.83310         0.62353
C         36.49111        44.09242         0.83564
C         37.85363        46.34203         0.12310
C         36.41175        46.65253        -0.09091
C         40.50293        24.91324        -2.60481
C         39.48688        25.51938        -2.23312
C         40.34435        27.40786        -0.98555
C         39.09966        26.62202        -1.33089
C         40.31783        28.87057        -0.77230
C         38.97273        29.49166        -0.78268
C         40.54520        31.92183        -0.13506
C         38.84558        30.84981        -0.84677
C         40.29697        33.08861         0.51120
C         38.92605        33.76683         0.62074
C         40.21274        35.88727         1.39216
C         39.05197        35.29147         0.62230
C         40.27824        37.39048         1.55623
C         39.00377        38.16059         1.44790
C         40.34319        40.31025         0.99162
C         39.06764        39.66149         1.40628
C         40.17920        41.64904         0.27898
C         39.07302        42.54063         0.91276
C         40.11671        44.41857        -0.50933
C         39.07073        44.01445         0.55386
C         40.12714        45.90981        -0.89368
C         38.69128        46.50293        -1.14014
C         39.96467        48.41511        -2.16977
C         39.01070        47.88886        -1.59581
C         43.13119        24.91231        -2.63572
C         41.84506        24.83798        -2.07345
C         42.83288        27.55374        -1.03364
C         41.54440        26.76301        -0.87940
C         42.71357        28.66137         0.01654
C         41.48407        29.53025        -0.37056
C         42.85593        31.65216         0.29164
C         41.51580        30.87941         0.35731
C         42.76672        32.91048         1.15882
C         41.45610        33.62326         1.28782
C         42.74304        35.79807         1.04964
C         41.47094        35.10935         1.54353
C         42.80778        37.29790         1.12958
C         41.63459        38.15028         1.56236
C         42.85079        40.14756         0.51825
C         41.52254        39.39866         0.59518
C         42.80579        41.63868         0.39173
C         41.51202        42.40949         0.31864
C         42.58587        44.23430        -1.13008
C         41.53573        43.91971        -0.06812
C         42.52990        45.55679        -1.82526
C         41.31998        46.45625        -1.63112
C         42.49919        48.15457        -2.91765
C         41.11034        47.61135        -2.70871
C         43.87675        25.59660        -1.73516
C         45.20197        27.13114        -0.04437
C         44.09869        26.65940        -0.96241
C         45.34913        28.72278        -0.26134
C         44.06297        29.37719         0.26933
C         45.38236        31.60757         0.43589
C         44.10071        30.83449         0.55463
C         45.37160        32.95418         1.08643
C         44.06955        33.62976         1.42043
C         45.29244        35.77404         1.01936
C         44.02065        35.15987         1.66023
C         45.37679        37.31323         1.08905
C         44.04840        37.95631         0.56443
C         45.32213        40.10379         0.13073
C         44.03418        39.47811         0.60198
C         45.26645        41.50067        -0.39618
C         44.09707        42.39380         0.04617
C         45.12296        44.50788        -0.92655
C         43.93722        43.49191        -1.06307
C         45.02807        45.62032        -2.00043
C         43.82648        46.17192        -2.30852
C         43.49278        47.40933        -2.95646
C         47.64751        27.26414         0.11032
C         46.61288        26.67449        -0.23534
C         47.84531        28.69516         0.26406
C         46.65416        29.38512         0.23177
C         47.94071        31.53817         0.89219
C         46.67553        30.88035         0.32137
C         47.98349        33.10090         0.79420
C         46.65061        33.71217         1.22000
C         48.28632        36.17929         1.42754
C         46.45906        35.00353         1.60185
C         48.05427        37.38473         0.86030
C         46.70462        38.07995         1.01464
C         47.89374        40.15084        -0.04207
C         46.66097        39.60600         0.70721
C         47.85103        41.54314        -0.59578
C         46.53193        42.26737        -0.74646
C         47.76440        44.61474        -0.82513
C         46.47621        43.75079        -0.98438
C         47.50578        45.74632        -1.84210
C         46.36760        46.07137        -2.20826
C         50.47784        28.82117         0.33403
C         49.14837        29.39894         0.13095
C         50.39798        31.76575         0.22258
C         49.16628        30.93805         0.19650
C         50.50959        32.99886         0.80454
C         49.29139        33.70478         1.44485
C         50.68448        35.91839         0.79221
C         49.45343        35.25829         1.30058
C         50.57058        37.33757         0.23950
C         49.16965        38.01995         0.02703
C         50.46934        40.23791        -0.28146
C         49.23691        39.53437         0.39352
C         50.39708        41.76600        -0.14647
C         49.08794        42.41417        -0.49118
C         50.31786        44.48900        -0.75506
C         49.02781        43.82188        -1.17843
C         51.57836        29.29667         0.70933
C         52.97634        31.45469         1.24590
C         52.25561        30.50412         0.48338
C         52.93897        32.70804         1.14125
C         51.87569        33.65386         0.76661
C         53.04675        36.09807         0.88506
C         51.96937        35.12650         0.58475
C         52.92639        37.32662         0.88189
C         51.84904        38.16144         0.31924
C         52.73287        40.56967         0.39171
C         51.77983        39.62472         0.30927
C         52.80581        41.85775         0.19846
C         51.71758        42.58048        -0.18545
C         51.39622        43.92589        -0.51643
O         32.64410        36.22417         2.18591
O         51.40379        37.53527        -0.94281
O         50.43871        35.81554         2.25084
O         44.12635        29.87189         1.64340
O         45.11907        40.37098        -1.29805
O         47.38201        35.68997         2.36983
O         49.54447        42.32405         0.90390
O         32.12853        39.73950        -0.11879
O         47.85065        40.36227        -1.47171
O         34.74765        35.12144         1.58358
O         49.03309        30.24060        -1.06978
O         34.35057        38.17029        -0.27030
O         38.23518        26.32613        -0.19815
O         37.21456        42.56523         2.56554
O         36.46482        35.02461        -1.40531
O         42.12585        44.31123        -2.52321
O         39.62808        43.55645         1.80797
O         52.11270        34.29261        -0.55519
O         32.08480        32.73853        -1.75719
O         41.06352        46.79552        -0.24599
O         35.02858        32.15282         0.62066
O         35.05811        41.35396         2.76545
O         44.78632        32.90034         2.46160
O         42.17355        42.20809         1.59767
O         38.86873        35.93952        -0.66172
O         41.98585        32.82165         2.38409
O         45.97805        37.84679         2.27489
O         40.00986        40.24768         2.38215
O         41.66884        25.37947        -0.75017
O         46.07925        31.54917        -0.85734
O         37.05697        44.90873         1.88569
O         35.30110        43.90196        -1.17372
O         36.73011        28.99686         0.31912
O         39.43673        37.67064         2.73920
O         51.49575        31.23481        -0.50700
O         39.91467        31.57416        -1.33012
O         37.25116        38.37824        -0.27519
O         46.51371        42.84634        -2.10240
O         37.19549        39.84644         2.83918
O         40.66758        35.38808         2.70465
O         32.07051        30.26659         0.98037
H         31.44280        29.62479         1.37086
O         31.15453        38.26921         3.02523
H         31.36301        37.39112         3.41316
O         45.04668        45.26579         0.28982
H         44.84322        44.64359         1.03455
O         41.92758        38.59480         2.89024
H         41.07669        38.62194         3.39171
O         41.15295        30.56543         1.71037
H         41.66558        29.76824         1.98837
O         39.71259        43.74465        -1.72467
H         40.38284        43.96086        -2.42543
O         31.38775        35.56765        -1.23656
H         30.68709        35.04914        -1.68419
O         40.68054        46.97916        -3.89539
H         40.61367        47.64640        -4.60991
O         44.05796        37.65969        -0.87515
H         43.24505        38.07069        -1.25626
O         42.67157        35.42128        -0.35709
H         43.44187        35.82735        -0.83215
O         44.80415        26.86620         1.29581
H         45.53459        27.09960         1.90686
O         44.01914        35.41628         3.05386
H         44.31652        34.60549         3.52467
O         41.26347        38.85718        -0.72172
H         40.80510        39.54987        -1.25768
O         49.25454        33.43054         2.85224
H         49.79135        34.11258         3.31689
O         45.36902        28.90681        -1.68569
H         45.65014        29.83286        -1.87403
O         44.56054        42.96075         1.29041
H         43.77864        42.99178         1.90069
O         38.38172        33.43994        -1.77338
H         38.31271        34.41375        -1.94192
O         42.33026        28.05832         1.27237
H         43.10711        27.55324         1.62041
O         37.50869        31.35494         1.06755
H         37.21066        30.41400         1.17245
O         33.55918        39.35816         3.10855
H         33.85388        40.15166         3.61408
O         41.96652        44.65200         1.07888
H         41.34081        44.45426         1.81636
O         49.39596        39.61136         1.80776
H         49.28916        40.55188         2.07985
O         39.82894        41.24230        -1.05694
H         39.61766        42.05135        -1.59795
O         38.45535        33.53012         1.94983
H         38.39363        32.56011         2.11539
O         48.81534        37.84217        -1.34775
H         48.89413        38.69849        -1.83293
O         38.46196        47.08323         1.15303
H         37.95229        46.93293         1.97812
O         46.74599        40.28163         1.98691
H         46.34636        39.69041         2.66798
O         50.48978        39.97363        -1.68705
H         50.90561        39.08638        -1.83517
O         44.04807        42.75597        -2.27818
H         43.71543        43.30887        -3.01976
O         34.03154        31.73065        -2.81344
H         33.25004        31.41903        -3.31814
O         49.06434        43.57745        -2.56496
H         48.72156        44.36900        -3.03630
O         43.00487        32.13627        -1.06732
H         42.75160        31.42640        -1.69569
O         36.76487        31.33515        -2.53283
H         37.26003        32.18934        -2.61957
O         47.98415        31.12355         2.26829
H         48.39223        31.83537         2.81935
O         42.79560        28.18759        -2.32769
H         43.01621        27.51984        -3.01237
O         45.28407        35.41163        -0.38571
H         45.96021        35.93649        -0.86502
O         33.95313        34.59803        -1.91365
H         33.72808        33.86816        -2.53691
O         48.10029        33.43984        -0.60161
H         47.38515        32.96737        -1.09497
O         47.84754        45.12654         0.47007
H         46.99796        45.58279         0.67784
O         38.06482        45.79601        -2.18798
H         38.47079        46.04390        -3.04457
