         429
 CSIRO Nanostructure Databank - Neutral Graphene Oxide Data Set
C          1.45165         3.74848         2.16615
C          0.19012         4.15077         1.83336
C          1.04755         5.67061         0.16115
C         -0.02490         5.12872         0.80109
C          1.07841         7.86421        -0.47576
C         -0.09956         8.56549        -0.14815
C          1.24310        10.54487         0.20416
C         -0.01017         9.88938         0.22362
C          1.29568        11.97526         0.38442
C          0.19209        12.70641         0.91609
C          1.31989        14.84851         0.60757
C          0.24921        14.08915         1.09100
C          1.34175        16.28833         0.64231
C          0.32176        17.04700         1.26398
C          1.30955        19.16897         0.58654
C          0.37159        18.45760         1.29925
C          1.28938        20.67506         0.62642
C          0.09584        21.25856        -0.11897
C          1.14426        23.46977        -0.16849
C          0.02643        22.60170        -0.36541
C          1.09138        24.87394        -0.05494
C         -0.15241        25.59793         0.09914
C          1.07020        27.66489         0.65183
C         -0.17304        26.91147         0.44114
C          1.06624        29.24621         0.63925
C         -0.17237        30.00238         0.45344
C          1.09561        32.07047         0.06994
C         -0.13838        31.33433         0.17060
C          1.10295        33.50506        -0.08778
C         -0.08988        34.25441        -0.28350
C          1.16429        36.34020        -0.35451
C         -0.05742        35.62615        -0.44653
C          1.21243        37.77334        -0.58516
C          3.87791         3.89543         1.94862
C          2.62755         4.27718         1.51717
C          3.64183         6.03754        -0.11131
C          2.44236         5.26615         0.41694
C          3.56802         7.55641        -0.83795
C          2.36244         8.40041        -0.37537
C          3.66124        10.55050        -0.21617
C          2.44001         9.81730        -0.10999
C          3.67290        11.96393        -0.22945
C          2.47059        12.67164         0.02669
C          3.68644        14.86487        -0.23379
C          2.36770        14.15034        -0.22705
C          3.65787        16.27743        -0.22717
C          2.44918        16.98019         0.06940
C          3.63473        19.16521        -0.35215
C          2.31276        18.44132        -0.26958
C          3.61129        20.60516        -0.40628
C          2.48310        21.32503        -0.00645
C          3.55173        23.51669        -0.86011
C          2.50067        22.82596         0.02244
C          3.54015        25.00256        -0.59672
C          2.31544        25.62480        -0.02042
C          3.54779        27.74479         0.24700
C          2.33123        26.99798         0.28140
C          3.51410        29.16399         0.28033
C          2.32747        29.91950         0.30671
C          3.55573        32.07854        -0.02526
C          2.32663        31.35863         0.11374
C          3.58880        33.48597         0.00046
C          2.34055        34.21731        -0.02331
C          3.60527        36.40607         0.20984
C          2.35115        35.63123        -0.10524
C          3.65575        37.78858        -0.40657
C          2.39348        38.44830        -0.65868
C          6.30526         3.78278         1.55432
C          5.08017         4.42610         1.37369
C          6.09577         5.85394        -0.24756
C          4.95366         5.52883         0.41570
C          6.05276         7.81061        -1.09075
C          4.86654         8.36817        -0.72377
C          6.06132        10.57849        -0.97679
C          4.96539         9.80288        -0.23555
C          6.10364        12.05156        -0.78281
C          4.90610        12.71897        -0.47051
C          6.11104        14.88453        -0.65966
C          4.89413        14.15705        -0.45031
C          6.09229        16.31962        -0.66718
C          4.87013        17.00229        -0.46757
C          6.02764        19.12797        -0.90771
C          4.83282        18.43960        -0.53645
C          5.80628        20.46050        -1.34677
C          4.76748        21.27884        -0.94392
C          6.13496        23.55462        -1.06765
C          4.80210        22.74837        -1.37462
C          6.09272        24.99733        -0.62564
C          4.80839        25.72215        -0.41471
C          6.08221        27.71428         0.23876
C          4.80823        27.02700         0.04573
C          6.07597        29.17863         0.35009
C          4.79178        29.91889         0.29709
C          6.10086        32.00685        -0.31149
C          4.77412        31.26073        -0.39901
C          6.10614        33.49396        -0.17409
C          4.82965        34.21908        -0.02298
C          6.09271        36.33818        -0.05767
C          4.87492        35.62416        -0.00819
C          6.12240        37.74315        -0.32429
C          4.85873        38.42106        -0.57028
C          8.77660         3.71316         1.08513
C          7.52909         4.28341         0.99219
C          8.61860         6.43758        -0.01320
C          7.41717         5.61407         0.34767
C          8.55793         7.75612        -0.73020
C          7.37440         8.41632        -0.99982
C          8.62811        10.58436        -1.30338
C          7.35677         9.85770        -1.27985
C          8.54082        12.05013        -1.43334
C          7.30286        12.76163        -1.04098
C          8.57433        14.90404        -0.87286
C          7.33272        14.17811        -0.89857
C          8.55178        16.34055        -0.75497
C          7.32385        17.06076        -0.79772
C          8.58986        19.20050        -0.82631
C          7.33099        18.49028        -0.89336
C          8.68359        20.65961        -0.75127
C          7.62126        21.53766        -1.18431
C          8.53845        23.47846        -0.06943
C          7.41040        22.82080        -0.76392
C          8.63079        24.97420        -0.26680
C          7.27562        25.54795         0.18652
C          8.55997        27.75120         0.34917
C          7.29081        27.05601         0.22238
C          8.58394        29.15814         0.31127
C          7.34884        29.90167         0.14383
C          8.54848        32.02555         0.49942
C          7.34010        31.26502         0.02894
C          8.55795        33.49716         0.18658
C          7.37927        34.18503         0.13498
C          8.63170        36.34287        -0.08425
C          7.36654        35.66679         0.37354
C          8.61088        37.74820        -0.34088
C          7.34107        38.42095        -0.42440
C         11.14735         3.65439         0.44151
C          9.94222         4.36249         0.52100
C         11.07307         6.35621        -0.41388
C          9.90430         5.71354         0.04656
C         11.01970         7.75513        -0.80396
C          9.82561         8.45613        -0.90603
C         11.09689        10.62479        -1.15410
C          9.83204         9.90233        -1.18810
C         11.11075        12.05469        -1.10557
C          9.86466        12.81290        -1.31260
C         11.03265        14.85937        -0.56851
C          9.82028        14.22101        -0.90727
C         10.95872        16.27943        -0.18752
C          9.75741        17.05049        -0.54735
C         11.07903        19.13593        -0.38043
C          9.79255        18.46449        -0.55172
C         11.11264        20.60215        -0.48801
C          9.84020        21.30486        -0.34337
C         11.09252        23.46784         0.24026
C          9.83423        22.71389         0.05332
C         11.01434        24.85391         0.57934
C          9.82774        25.59454         0.42710
C         11.01560        27.75030         0.60697
C          9.80176        27.02858         0.50592
C         11.04659        29.15807         0.45415
C          9.82237        29.87408         0.32641
C         11.04203        31.99966         0.16867
C          9.83749        31.29336         0.25858
C         11.00787        33.44294         0.01912
C          9.83197        34.18104         0.09696
C         11.06588        36.31451        -0.34557
C          9.83325        35.62264        -0.11646
C         11.06847        37.73750        -0.52326
C          9.82908        38.42644        -0.54573
C         13.53673         3.52295        -0.10559
C         12.33161         4.26506        -0.03751
C         13.55173         6.32356        -0.70998
C         12.30881         5.64607        -0.41838
C         13.54991         7.69027        -0.97233
C         12.27710         8.41637        -1.31332
C         13.55086        10.56602        -0.91004
C         12.32271         9.90539        -1.05334
C         13.61681        12.06616        -1.06234
C         12.29839        12.77563        -0.87677
C         13.52431        14.90771        -0.35664
C         12.28336        14.17874        -0.62075
C         13.50594        16.24673        -0.06604
C         12.25268        17.01142         0.05349
C         13.54774        19.17510        -0.04702
C         12.27733        18.47188        -0.15647
C         13.59543        20.58336        -0.01189
C         12.38551        21.37436        -0.27477
C         13.55096        23.42362         0.47765
C         12.33792        22.79201         0.17275
C         13.58319        24.78752         1.13688
C         12.24482        25.53834         1.05414
C         13.54562        27.75886         0.80059
C         12.26140        27.04496         0.95305
C         13.52243        29.16501         0.65283
C         12.28438        29.87921         0.48656
C         13.54049        31.97865         0.26338
C         12.29090        31.28122         0.27251
C         13.56309        33.38282        -0.20192
C         12.24784        34.12907        -0.36947
C         13.52028        36.25783        -0.57559
C         12.28958        35.59743        -0.40875
C         13.53631        37.70023        -0.66646
C         12.31889        38.40084        -0.67327
C         15.97649         3.41479        -0.43047
C         14.76815         4.15129        -0.38105
C         16.03081         6.22758        -0.64971
C         14.79523         5.57954        -0.59619
C         16.12058         7.66457        -0.96810
C         14.80087         8.43538        -1.16648
C         16.03435        10.56425        -0.69810
C         14.80216         9.88639        -0.92705
C         16.04997        11.95884        -0.35371
C         14.73012        12.69607        -0.21769
C         16.00146        14.80612         0.26268
C         14.87308        14.20683        -0.53675
C         15.98914        16.23404         0.58313
C         14.71606        16.99281         0.35546
C         16.00485        19.12221         0.22597
C         14.76882        18.45601         0.15353
C         16.03653        20.56129         0.26329
C         14.80518        21.27557         0.23567
C         16.00870        23.38878         0.59133
C         14.78745        22.70226         0.40970
C         16.00061        24.86600         0.42600
C         14.77398        25.61361         0.66461
C         16.00835        27.78726         0.67504
C         14.77572        27.03549         0.70133
C         15.98028        29.17509         0.80712
C         14.74910        29.89234         0.69420
C         15.99339        32.08238         0.67326
C         14.73617        31.30820         0.53130
C         16.01169        33.55017         0.36126
C         14.77796        34.19620        -0.12429
C         16.06074        36.21895        -0.81842
C         14.76367        35.53070        -0.46237
C         16.02315        37.71826        -0.62262
C         14.79417        38.38641        -0.67182
C         18.46489         3.36818        -0.59845
C         17.21952         4.06670        -0.52165
C         18.48172         6.18973        -0.40341
C         17.24722         5.49930        -0.50472
C         18.43896         7.62958         0.06781
C         17.30671         8.41395        -0.58261
C         18.46866        10.53631        -0.23810
C         17.26905         9.81428        -0.55874
C         18.45793        11.88905         0.05182
C         17.21891        12.60071         0.05530
C         18.47738        14.71718         0.81847
C         17.13977        13.95067         0.74125
C         18.51078        16.24903         0.75105
C         17.25177        16.99975         0.54203
C         18.52949        19.07385         0.14567
C         17.24398        18.35858         0.33940
C         18.53588        20.59886         0.21155
C         17.24862        21.29397         0.42290
C         18.48211        23.39750         1.07046
C         17.23289        22.68618         0.60354
C         18.55014        24.88631         0.77245
C         17.34420        25.60739         0.36156
C         18.50034        27.74094         1.07426
C         17.34875        27.13439         0.33387
C         18.54076        29.20623         1.15483
C         17.23126        29.94921         1.04250
C         18.49369        32.06586         0.63905
C         17.28495        31.37760         0.71092
C         18.51930        33.50067         0.35954
C         17.30612        34.21436         0.12334
C         18.52080        36.28588        -0.26783
C         17.30595        35.55804        -0.26516
C         18.49350        37.71613        -0.45658
C         17.24951        38.40062        -0.56216
C         19.65254         4.06207        -0.65498
C         20.94390         6.20772        -0.54170
C         19.68315         5.48313        -0.52098
C         20.99603         7.54732        -0.37184
C         19.79339         8.33904        -0.02754
C         20.90966        10.64391        -0.68970
C         19.77740         9.82327        -0.17865
C         20.88681        11.95602        -0.41683
C         19.78107        12.51197         0.47289
C         20.91454        14.74463         0.48943
C         19.74680        14.02419         0.52720
C         20.95351        16.16698         0.48873
C         19.79975        16.93090         0.50110
C         20.98013        19.12419         0.36258
C         19.80702        18.36688         0.34627
C         20.98444        20.52775         0.44479
C         19.80677        21.28892         0.50624
C         20.95750        23.41646         1.08519
C         19.79092        22.68145         0.81027
C         20.90973        24.78845         1.33865
C         19.72516        25.54243         1.13053
C         20.90322        27.75473         0.61914
C         19.78562        27.03734         1.35964
C         20.90644        29.10386         0.45786
C         19.77513        29.93027         0.81441
C         20.96709        32.07886         0.51801
C         19.75242        31.33127         0.68194
C         20.96858        33.43501         0.33127
C         19.75113        34.18712         0.22484
C         20.95005        36.37669        -0.02940
C         19.75672        35.61124        -0.01671
C         20.92001        37.75328        -0.24329
C         19.71194        38.42642        -0.43915
O          3.11595        24.41509        -1.91334
O         15.10105        16.60469         1.73946
O         16.71018        25.12441        -0.87330
O          0.87174         6.53898        -0.92105
O          6.25835        32.83864        -1.52612
O         18.53947        19.89035        -1.07900
O         12.90845        33.50051        -1.52319
O          6.31688        24.65548        -2.04343
O          8.90719        22.96472         1.23002
O         12.06827        26.34035         2.26777
O         18.52191        15.52267         2.04310
O          9.21892        12.57873        -2.61554
O          6.78807        21.01619        -2.16771
O          3.06118         4.97944        -0.92177
O         20.03060         9.21444         1.15758
O          1.11494        28.45046         1.87391
O          5.44572        29.77510         1.59124
O         11.87305        21.15056        -1.64512
O         11.41988        16.57701         1.18763
O         17.83179        29.69677         2.37650
O         15.61076         7.99383        -2.30925
O          6.36657        10.19829        -2.33738
O          7.91461         6.64391         1.29701
O          6.05158         6.46596        -1.50008
O         15.87701        33.09098         1.76337
O         16.17724        36.03161        -2.27688
H         15.36917        36.40882        -2.68576
O          4.70967        22.69302        -2.80320
H          4.65695        23.62026        -3.12625
O          7.02086        25.07957         1.53549
H          7.85066        25.14244         2.05481
O          2.91280        23.13477         1.41046
H          2.70041        24.07911         1.58921
O          7.35513        35.81051         1.85495
H          8.08523        35.25592         2.20696
O         16.76572        13.62265         2.13232
H         17.08682        14.37586         2.68673
O         18.08235         7.53696         1.47946
H         18.57603         8.25965         1.93633
O         15.29019        14.41653        -1.91923
H         14.82803        13.74600        -2.48345
O         20.07978        27.17971         2.79630
H         19.85506        28.10081         3.05161
O         14.30771        12.57691         1.15530
H         15.03752        12.91623         1.73228
O         13.83542        24.50558         2.54762
H         13.39956        25.23128         3.05554
O         18.32893        23.35325         2.54694
H         19.09927        23.82414         2.93451
O          3.37626         7.26034        -2.21917
H          2.83568         6.43836        -2.27665
O         12.19589         8.32515        -2.79029
H         12.28206         7.37865        -3.03371
O          5.44168         9.77573         1.15338
H          4.72250         9.42426         1.71894
O         20.06278        12.08887         1.83486
H         20.09562        11.10600         1.85091
O          1.74547        18.46405        -1.64816
H          2.29732        17.86807        -2.19954
O          8.40670        32.03293         1.98215
H          8.30307        31.10107         2.27537
O          1.87290        14.26638        -1.62935
H          1.01744        13.78676        -1.66926
O         17.57381        27.52111        -1.07294
H         17.17639        26.79862        -1.61738
O          3.54687        36.63137         1.66579
H          4.42212        36.98038         1.94163
O         13.96633        12.23772        -2.48243
H         13.28457        11.77519        -3.01644
O          8.85889        25.24871        -1.66594
H          8.03476        25.01370        -2.16566
O          4.58211        30.90727        -1.80127
H          4.92906        31.66742        -2.32590
O          1.18706        21.06180         2.02863
H          1.72391        21.88327         2.14572
H          1.60054         2.99744         2.95513
H         -0.68097         3.72451         2.34904
H         -1.04508         5.41531         0.51678
H         -1.06817         8.05469        -0.21863
H         -0.92640        10.44613         0.45689
H         -0.69344        12.17272         1.28409
H         -0.58814        14.58209         1.60499
H         -0.50499        16.53930         1.77893
H         -0.37566        19.00235         1.89388
H         -0.73985        20.60116        -0.40113
H         -0.90843        23.02618        -0.76405
H         -1.09820        25.04837        -0.01055
H         -1.13239        27.41356         0.62861
H         -1.13690        29.49997         0.61052
H         -1.09175        31.87127         0.07408
H         -1.05913        33.74137        -0.34095
H         -0.98962        36.17837        -0.63421
H          0.26461        38.29720        -0.77840
H          3.96244         3.14209         2.74607
H          2.40646        39.51464        -0.93104
H          6.33385         2.85104         2.13793
H          4.88664        39.46789        -0.91163
H          8.91392         2.74634         1.59139
H          7.33538        39.49889        -0.64603
H         11.18398         2.60766         0.77706
H          9.82060        39.51227        -0.72359
H         13.51724         2.44772         0.12545
H         12.33223        39.49726        -0.76645
H         15.93946         2.31710        -0.36700
H         14.78614        39.48759        -0.65232
H         18.46125         2.26919        -0.63201
H         17.25241        39.50193        -0.56051
H         20.60503         3.51992        -0.74626
H         21.86525         5.63985        -0.73811
H         21.95829         8.07814        -0.40708
H         21.71599        10.18282        -1.27919
H         21.69127        12.61140        -0.78131
H         21.87474        14.21854         0.39597
H         21.93434        16.64871         0.37878
H         21.95137        18.61349         0.42114
H         21.95782        21.02460         0.55697
H         21.93749        22.91901         1.08301
H         21.83623        25.31981         1.59537
H         21.75850        27.16237         0.25964
H         21.77598        29.57856        -0.02128
H         21.92770        31.54849         0.57728
H         21.93327        33.95102         0.23343
H         21.91981        35.89254         0.14732
H         21.86158        38.32022        -0.23849
H         19.70459        39.51723        -0.57645
