         324
 CSIRO Nanostructure Databank - Neutral Graphene Oxide Data Set
C         30.26481        57.15083        -0.04689
C         30.24646        58.54180        -0.26423
C         29.06775        59.29615        -0.42094
C         30.32627        61.38042        -0.76447
C         29.12189        60.67976        -0.65005
C         32.74537        52.91014         0.24067
C         32.68608        54.29394         0.35750
C         31.46002        55.00795         0.21679
C         32.72995        56.99460        -0.56729
C         31.45526        56.38513        -0.01406
C         32.78993        58.49897        -0.34657
C         31.52653        59.28568        -0.26228
C         32.80706        61.36358        -0.78518
C         31.56970        60.72008        -0.62988
C         35.30262        48.66098         0.08156
C         35.25098        50.04269         0.13629
C         34.02502        50.78836         0.08969
C         35.18141        52.87835         0.74457
C         33.95624        52.15517         0.33818
C         35.17571        54.37894         0.90604
C         33.87079        55.14428         0.81284
C         35.20677        57.05263        -0.14023
C         34.01775        56.40322        -0.01420
C         35.28424        58.38398        -0.81501
C         34.01801        59.18620        -0.84172
C         35.28867        61.30994        -0.79373
C         34.05000        60.66995        -0.80805
C         37.81552        44.42597        -0.34010
C         37.80447        45.83068        -0.15022
C         36.58850        46.55247        -0.09881
C         37.77869        48.65328         0.32047
C         36.55341        47.94724         0.09157
C         37.78273        50.07490         0.46754
C         36.53196        50.78624         0.16760
C         37.71744        52.92158         0.96815
C         36.50774        52.27111         0.44186
C         37.65790        54.39809         1.30869
C         36.44661        55.05499         0.70049
C         37.75715        57.13898         0.18035
C         36.42850        56.55384         0.61898
C         37.78707        58.47538        -0.29378
C         36.61037        59.11007        -0.99492
C         37.74070        61.29507        -0.70689
C         36.53692        60.61570        -0.77691
C         40.29122        40.13031        -0.46512
C         40.28387        41.54224        -0.44396
C         39.06407        42.29758        -0.51813
C         40.28855        44.46118        -0.44482
C         39.02053        43.69504        -0.43545
C         40.29306        45.89017        -0.05418
C         39.04631        46.55129         0.03101
C         40.23493        48.63637         0.56605
C         39.02070        47.94464         0.31559
C         40.16796        50.01226         1.08518
C         38.92458        50.78110         0.86675
C         40.12677        52.95602         1.47819
C         38.89040        52.20563         1.10533
C         40.13450        54.41439         1.18581
C         38.96395        55.08971         0.98348
C         40.21952        57.10756         0.32191
C         38.96746        56.47679         0.53364
C         40.25699        58.39330        -0.46195
C         38.98888        59.17813        -0.40797
C         40.22139        61.27742        -0.71141
C         39.00362        60.59785        -0.65145
C         42.72194        35.83590        -0.69553
C         42.69711        37.23977        -0.41615
C         41.50548        37.96832        -0.45184
C         42.72373        40.08243        -0.08977
C         41.48947        39.39075        -0.32648
C         42.71199        41.49806        -0.04846
C         41.53020        42.22006        -0.26105
C         42.78577        44.39200         0.25946
C         41.57242        43.69863        -0.34215
C         42.79092        45.90079         0.09298
C         41.50500        46.59146         0.12122
C         42.71409        48.74246         0.55452
C         41.48266        47.99005         0.43916
C         42.72715        50.08583         0.90932
C         41.47693        50.73865         1.35285
C         42.70663        52.98860         1.23894
C         41.45209        52.23370         1.50503
C         42.68435        54.35734         1.25682
C         41.41595        55.17767         1.45765
C         42.65594        57.17764         0.50868
C         41.44398        56.50890         0.71761
C         42.70751        58.52897        -0.02306
C         41.49643        59.20804        -0.28169
C         42.70484        61.31215        -0.52030
C         41.48196        60.60562        -0.52853
C         45.16862        33.02989        -1.12286
C         43.94465        33.72886        -1.04942
C         45.18567        35.74007        -0.23378
C         43.90760        35.09901        -0.72631
C         45.17812        37.24380        -0.32971
C         43.95355        37.93826        -0.20745
C         45.21287        39.99163         0.22377
C         43.96446        39.34595        -0.01563
C         45.22134        41.44820         0.47782
C         43.96901        42.23360         0.23540
C         45.31243        44.40263        -0.08339
C         44.01240        43.65235        -0.32976
C         45.27161        45.88985         0.17643
C         43.96578        46.59517         0.15525
C         45.21496        48.74087         0.68584
C         43.99663        48.10248         0.06321
C         45.21418        50.13158         0.87094
C         43.95677        50.85417         0.91686
C         45.21087        52.95516         1.12811
C         43.96225        52.24993         1.10489
C         45.24146        54.37740         1.19061
C         43.95359        55.10139         1.32130
C         45.20641        57.15008         0.52759
C         43.91122        56.58540         1.00931
C         45.20336        58.48421        -0.15242
C         43.92865        59.22686        -0.18505
C         45.18659        61.35729        -0.38704
C         43.93689        60.63499        -0.38869
C         46.38754        33.67298        -0.98756
C         47.60330        35.80211        -0.90912
C         46.44966        35.08943        -0.74732
C         47.59643        37.30470        -0.99236
C         46.39644        37.93992        -0.32808
C         47.77053        39.90254         0.45039
C         46.42749        39.30415         0.04043
C         47.79588        41.41280         0.34558
C         46.51520        42.18137         0.32722
C         47.39350        44.37412         1.15596
C         46.42730        43.65747         0.52414
C         47.58455        45.80081         1.07766
C         46.43258        46.53730         0.80178
C         47.71779        48.61234         1.17472
C         46.36117        47.95494         1.26236
C         47.74760        50.08429         0.80987
C         46.45021        50.82618         1.04419
C         47.69867        52.95708         1.13815
C         46.45601        52.23658         1.10230
C         47.70735        54.37564         1.11731
C         46.45777        55.07258         1.13437
C         47.71542        57.22696         0.69716
C         46.44770        56.58220         1.19621
C         47.64928        58.72851         0.52575
C         46.50924        59.21807        -0.42388
C         47.64753        61.45458        -0.27026
C         46.42568        60.73233        -0.31318
C         48.90478        37.99810        -0.72810
C         50.15812        40.08001        -0.46841
C         48.96903        39.31070        -0.29639
C         50.26394        41.44844        -0.08099
C         49.12725        42.05043         0.54437
C         50.26835        44.23887         0.78708
C         49.26656        43.30299         1.12673
C         50.14803        45.67511         1.02542
C         48.89292        46.40212         1.25827
C         50.16100        48.57468         1.52597
C         48.87894        47.85809         1.26598
C         50.20113        50.08424         1.55918
C         48.95689        50.84769         1.28893
C         50.18428        53.00276         1.52028
C         48.93769        52.22344         1.29543
C         50.20520        54.44696         1.19343
C         48.94982        55.11485         1.06539
C         50.17727        57.29297         0.80061
C         48.90218        56.53615         0.81878
C         50.19596        58.60786         0.11203
C         48.90524        59.33289        -0.05680
C         50.14402        61.45855        -0.26968
C         48.90833        60.80798        -0.20616
C         51.41582        42.25905        -0.21322
C         52.54252        44.45355        -0.07821
C         51.41210        43.64073         0.14338
C         52.54339        45.80497         0.32134
C         51.35354        46.41067         0.85336
C         52.69979        48.61120         1.02066
C         51.43713        47.82093         1.29513
C         52.64835        50.09410         0.97695
C         51.48959        50.77544         1.30898
C         52.71596        52.96931         1.02913
C         51.51471        52.23925         1.44244
C         52.69718        54.38945         0.95197
C         51.45124        55.10081         1.06707
C         52.70949        57.26102         0.46581
C         51.48985        56.57003         0.92849
C         52.68671        58.66165         0.14621
C         51.45063        59.36230         0.06066
C         52.63286        61.45191        -0.26044
C         51.39763        60.75898        -0.17545
C         53.72987        46.56531         0.08525
C         54.97715        48.68003         0.04008
C         53.82796        47.93547         0.34218
C         55.03650        50.08740         0.25310
C         53.85575        50.80498         0.65444
C         55.10158        52.93037         0.43225
C         53.88261        52.23172         0.69273
C         55.12989        54.35486         0.47514
C         53.91251        55.09053         0.67492
C         55.12513        57.20130         0.14782
C         53.91849        56.52697         0.46196
C         55.09301        58.55438        -0.29209
C         53.89453        59.34961        -0.20036
C         55.05688        61.63153        -0.39739
C         53.86792        60.79021        -0.33288
C         56.23608        50.79089         0.03315
C         57.52970        52.89952         0.03611
C         56.30064        52.19905         0.15951
C         57.57301        54.29014         0.14101
C         56.37529        55.01858         0.30495
C         57.59539        57.05884        -0.39782
C         56.44688        56.51691         0.41053
C         57.45548        58.29260        -1.07789
C         56.21764        59.00035        -1.03763
C         57.53325        61.80569        -0.94719
C         56.22481        61.25795        -1.03509
C         58.91361        55.00592         0.16240
C         59.96649        57.04691        -0.94125
C         58.82954        56.39465        -0.43225
C         59.89052        58.36803        -1.45677
C         58.59899        58.90464        -1.64521
C         60.01301        61.45234        -1.25451
C         58.66367        61.15874        -1.49367
C         61.05566        59.19058        -1.69571
C         61.08560        60.56940        -1.56272
O         49.46743        58.58854        -1.17436
O         40.78242        52.64138         2.75349
O         48.26622        43.70014         2.01203
O         50.86524        57.30012         2.08038
O         43.91977        56.12968         2.38214
O         36.64292        51.77414        -0.92673
O         45.64459        45.31472        -1.17539
O         50.13632        49.28394         2.80676
O         58.43930        60.07294        -2.38607
O         45.19982        57.20888        -0.92699
O         34.51016        58.53531        -2.07353
O         44.44446        41.98810         1.59546
O         47.20267        41.84653        -0.94061
O         35.14859        53.44165         2.10381
O         41.13619        44.21535        -1.63197
O         56.09593        60.08875        -1.85411
O         32.34945        58.96796         0.94514
O         40.76908        50.07721         2.43735
O         52.42777        48.04294         2.34993
O         50.92320        52.68509         2.72975
O         37.51989        54.55252         2.77176
H         36.69705        54.06101         3.01607
O         36.27122        57.02604         2.00379
H         36.81957        56.43063         2.57241
O         32.63445        56.71368        -1.98729
H         33.37906        57.19053        -2.43076
O         43.84357        43.50890        -1.74538
H         44.26999        44.28937        -2.16985
O         45.20622        35.47291         1.21689
H         44.36335        35.81053         1.58842
O         40.31350        57.94693        -1.89746
H         39.40836        58.04049        -2.27207
O         56.76590        56.84412         1.81786
H         56.06281        56.44795         2.37609
O         33.53918        55.57841         2.15767
H         33.77180        54.83667         2.75948
O         47.43076        59.33528         1.82205
H         46.96388        58.67461         2.39524
O         42.78750        44.14710         1.68610
H         42.16410        44.76797         2.11670
O         47.94885        39.58017         1.85438
H         47.95005        38.60468         1.94846
O         47.89933        50.06626        -0.67443
H         47.12861        49.57593        -1.03693
O         36.98992        58.94610        -2.40453
H         36.15536        59.02187        -2.92462
O         46.88095        58.95885        -1.78579
H         46.58090        58.04748        -2.00503
O         44.08299        48.41068        -1.38542
H         43.94159        49.37582        -1.48887
O         59.92537        54.23612        -0.48815
H         59.70949        54.18410        -1.44137
O         41.33970        55.48138         2.88188
H         41.21696        54.61939         3.34450
O         46.34716        56.98399         2.61058
H         46.96677        56.42569         3.12690
O         47.37634        37.57451        -2.43648
H         47.34816        38.54919        -2.55202
O         46.04539        47.88427         2.72077
H         46.86211        47.59868         3.18541
H         29.30653        56.63469         0.12351
H         28.09228        58.79016        -0.38512
H         30.31003        62.45645        -0.99018
H         28.17805        61.23005        -0.77280
H         31.82723        52.36920        -0.03818
H         30.50572        54.46284         0.30042
H         32.82105        62.45741        -0.90897
H         34.36970        48.08263         0.00634
H         33.09555        50.24339        -0.13523
H         35.31376        62.40951        -0.73611
H         36.85602        43.88972        -0.39643
H         35.64227        46.01018        -0.24558
H         37.74680        62.39570        -0.67879
H         39.34530        39.58939        -0.61789
H         38.11439        41.74269        -0.56631
H         40.22479        62.36654        -0.86631
H         41.77364        35.33696        -0.95030
H         40.55820        37.44187        -0.64345
H         42.70130        62.40254        -0.66453
H         45.15021        31.95711        -1.36287
H         43.00628        33.20233        -1.27888
H         45.14115        62.45739        -0.40761
H         47.32202        33.12308        -1.17408
H         48.52195        35.28054        -1.22327
H         47.61325        62.55491        -0.30868
H         49.79219        37.55960        -1.21446
H         51.01993        39.59641        -0.95440
H         50.17335        62.55051        -0.40475
H         52.33078        41.83723        -0.65435
H         53.44363        44.02592        -0.54099
H         52.61793        62.54947        -0.33924
H         54.58807        46.04913        -0.37065
H         55.85650        48.16850        -0.37849
H         54.98608        62.63363         0.05050
H         57.14531        50.23237        -0.23313
H         58.46408        52.33908        -0.11224
H         57.69348        62.65940        -0.27417
H         59.22633        55.09749         1.23915
H         60.94207        56.54284        -0.87751
H         60.26561        62.41515        -0.78677
H         62.02217        58.67018        -1.77880
H         62.08904        61.02614        -1.55752
