         429
 CSIRO Nanostructure Databank - Neutral Graphene Oxide Data Set
C          1.32559         2.25511        -0.44348
C          1.32124         3.65362        -0.23561
C          2.50701         1.54388        -0.43359
C          2.49787         4.34366         0.03086
C          1.24750         6.48327         0.68755
C          1.20826         7.67795         1.29666
C          2.54170         5.86358         0.18914
C          2.44068         8.45816         1.60203
C          1.20593        10.68327         1.16240
C          1.16848        12.01036         0.90900
C          2.41612         9.97491         1.61746
C          2.33663        12.89680         1.06186
C          1.08806        15.11125         0.61064
C          1.13982        16.46652         0.52672
C          2.29207        14.27071         0.43641
C          2.37195        17.18847         0.28697
C          2.41344        18.60585         0.22268
C          3.74491         2.21438        -0.21587
C          3.72864         3.62028         0.05219
C          4.97595         1.51292        -0.29048
C          4.98315         4.29297         0.24519
C          3.70352         6.23705         1.14017
C          3.74824         7.74500         1.45707
C          5.00574         5.68642         0.61413
C          4.99089         8.52548         1.18766
C          3.74198        10.73402         1.52450
C          3.69322        12.21734         1.25249
C          4.97252         9.98886         1.14668
C          4.92161        12.87793         0.76420
C          3.59152        14.98716         0.22825
C          3.58181        16.47042         0.14472
C          4.90273        14.39879         0.72723
C          4.78058        17.14896        -0.11481
C          3.60435        19.27933         0.01532
C          4.82457        18.57059        -0.18645
C          6.20643         2.18542        -0.20169
C          6.18177         3.59519         0.03972
C          7.46337         1.48360        -0.26946
C          7.43230         4.35915        -0.01335
C          6.18748         6.41489         0.69727
C          6.16573         7.84016         0.95810
C          7.45145         5.75398         0.46868
C          7.44837         8.64474         0.91753
C          6.05676        10.68707         0.63751
C          6.05673        12.13406         0.51991
C          7.21588         9.89147         0.04353
C          7.36913        12.83815         0.38719
C          6.04884        14.96974        -0.07134
C          5.97381        16.36796        -0.50159
C          7.33697        14.36052         0.19243
C          7.23134        17.11436        -0.91004
C          6.06728        19.24620        -0.37540
C          7.28145        18.56959        -0.61440
C          8.69756         2.12477        -0.19295
C          8.73180         3.60668        -0.17170
C          9.93757         1.43535        -0.07979
C          9.96814         4.28658         0.17483
C          8.66286         6.41935         0.58690
C          8.68743         7.84670         0.57184
C          9.94974         5.64726         0.79417
C          9.88187         8.50351         0.31164
C          8.53407        10.66200        -0.17543
C          8.60155        12.13020        -0.00924
C          9.85522         9.92906        -0.09194
C          9.79756        12.79284        -0.24503
C          8.58628        15.06715        -0.21045
C          8.53229        16.32575        -1.08811
C          9.84051        14.27096        -0.33615
C          9.80016        17.11688        -0.85618
C          8.52490        19.21971        -0.54638
C          9.77808        18.53147        -0.64611
C         11.17543         2.09786        -0.00897
C         11.25087         3.60278        -0.17058
C         12.38668         1.40435         0.10534
C         12.44500         4.20127         0.58278
C         11.21707         6.42608         0.51728
C         11.14168         7.80671         0.34140
C         12.46197         5.71220         0.39977
C         12.37624         8.60216         0.25499
C         11.11296        10.70021        -0.14307
C         11.05836        12.08544        -0.41482
C         12.34235        10.01813        -0.14913
C         12.27595        12.75590        -0.72948
C         10.97930        14.93753        -1.04668
C         11.00606        16.41907        -0.90488
C         12.26386        14.18746        -1.12325
C         12.25185        17.08437        -0.75600
C         11.00815        19.19851        -0.48145
C         12.24552        18.50211        -0.52239
C         13.67632         2.01937         0.18310
C         13.74447         3.48450         0.26276
C         14.77710         1.15827        -0.03137
C         14.88088         4.24039         0.02338
C         13.62742         6.37885         0.04541
C         13.67776         7.84536         0.04747
C         14.84492         5.66591        -0.26404
C         14.77956         8.54115        -0.62894
C         13.54232        10.67796        -0.51197
C         13.49078        12.06350        -0.80338
C         14.76515         9.92365        -0.76622
C         14.70138        12.77193        -1.38898
C         13.53025        14.94552        -1.02203
C         13.49191        16.36079        -0.80062
C         14.73244        14.24226        -1.03973
C         14.71510        17.04281        -0.58416
C         13.47635        19.16136        -0.29297
C         14.70124        18.45739        -0.29690
C         16.13688         1.54106         0.12392
C         16.21527         3.69487         0.08360
C         17.29287         1.09529        -0.47917
C         17.30710         4.14477        -0.60751
C         15.95162         6.28297        -0.81860
C         15.89701         7.72912        -1.12521
C         17.13223         5.47628        -1.36931
C         17.22674         8.50910        -1.31954
C         15.99207        10.65184        -1.05567
C         16.00107        12.06232        -1.10328
C         17.22794         9.95490        -1.08540
C         17.22156        12.77529        -1.04479
C         15.97295        14.92206        -0.88302
C         15.95194        16.33104        -0.63102
C         17.21564        14.21353        -0.94951
C         17.17571        17.01365        -0.39961
C         15.91889        19.10032         0.01307
C         17.14727        18.40137        -0.01508
C         18.54379         1.85853        -0.41975
C         18.54782         3.34560        -0.63621
C         19.65494         1.05924        -0.14589
C         19.70325         4.08260        -0.85020
C         18.44217         6.29743        -1.36116
C         18.47854         7.76615        -1.17014
C         19.70767         5.55603        -1.02680
C         19.67155         8.44443        -0.97000
C         18.45836        10.64497        -1.00031
C         18.46972        12.07226        -0.97197
C         19.70047         9.91252        -0.94808
C         19.71270        12.78852        -0.97156
C         18.45023        14.91543        -0.86947
C         18.42299        16.33322        -0.55614
C         19.68410        14.21041        -0.99566
C         19.61785        17.02963        -0.29760
C         18.35209        19.03647         0.34880
C         19.58850        18.36675         0.22771
C         21.03760         1.42739        -0.31007
C         21.04707         3.54704        -0.86342
C         22.17538         1.14951         0.40667
C         22.07547         4.15070        -0.21618
C         20.85910         6.31755        -0.53337
C         20.88445         7.69375        -0.66492
C         22.01105         5.60998         0.14254
C         22.12622         8.40365        -0.46540
C         20.90689        10.61325        -0.88836
C         20.96673        12.05868        -0.95247
C         22.18092         9.80763        -0.99641
C         22.22752        12.73406        -1.00258
C         20.93699        14.97697        -1.16303
C         20.90163        16.44465        -0.70201
C         22.27794        14.23763        -1.40559
C         22.14056        17.12807        -0.27175
C         20.79144        19.02012         0.57881
C         22.06383        18.43119         0.35759
C         23.39043         1.93175         0.17249
C         23.37304         3.45746         0.11548
C         24.63581         1.39648         0.35577
C         24.44558         4.14047        -0.77534
C         23.34876         6.28412        -0.12963
C         23.31748         7.72986        -0.19305
C         24.53318         5.59460        -0.31021
C         24.56883         8.44126        -0.07365
C         23.37292        10.55986        -0.50269
C         23.41060        11.94745        -0.80784
C         24.51950         9.86579        -0.07390
C         24.75609        12.46028        -0.88480
C         23.44650        15.09451        -0.84222
C         23.35047        16.45575        -0.37519
C         24.74533        14.62999        -0.96494
C         24.60999        17.21155        -0.15184
C         23.21785        19.08780         0.80959
C         24.54050        18.63849         0.42481
C         25.84504         2.15240         0.10141
C         25.76613         3.30558        -0.89887
C         27.04980         1.58186         0.39540
C         27.07065         4.18856        -1.03996
C         25.80743         6.29923        -0.31452
C         25.80726         7.74555        -0.05506
C         26.98947         5.63800        -0.57467
C         27.04094         8.45239         0.04527
C         25.69604        10.62182         0.35182
C         25.79929        11.98897        -0.12941
C         27.07343         9.86189         0.42396
C         27.00516        12.78437         0.23794
C         25.87474        15.13284        -0.25669
C         25.86229        16.47800         0.08567
C         27.01767        14.28569         0.18113
C         27.06295        17.13140         0.50305
C         25.76299        19.23828         1.11132
C         27.06373        18.51169         0.83387
C         28.30738         2.20315         0.05655
C         28.32269         3.53174        -0.46262
C         29.50316         1.51729         0.27215
C         29.54005         4.21618        -0.56618
C         28.22252         6.46349        -0.91118
C         28.28833         7.81601        -0.21904
C         29.54308         5.67284        -0.87514
C         29.49018         8.51624        -0.08009
C         28.30997        10.65091         0.23600
C         28.30421        12.06141         0.25932
C         29.53595         9.94394         0.10851
C         29.52222        12.78892         0.28361
C         28.31708        14.98174         0.29034
C         28.30071        16.39001         0.46657
C         29.51819        14.24091         0.35719
C         29.52844        17.07330         0.68575
C         28.27550        19.18524         0.97737
C         29.52193        18.51355         0.85808
C         30.75157         2.15227         0.05942
C         30.76284         3.54927        -0.25695
C         31.97008         1.44696         0.20495
C         32.02413         4.23809        -0.23590
C         30.81796         6.40692        -0.59024
C         30.78116         7.76627         0.07340
C         32.06047         5.65087        -0.31559
C         32.02485         8.57457        -0.19087
C         30.77266        10.66401         0.13810
C         30.76400        12.07738         0.27588
C         32.03968         9.95202        -0.01302
C         32.00926        12.80511         0.40604
C         30.74905        14.94179         0.54936
C         30.73529        16.34464         0.71421
C         31.99737        14.20567         0.58232
C         31.98380        17.06963         1.14672
C         30.74187        19.21881         0.83997
C         31.98210        18.53937         0.79097
C         33.21499         2.09849         0.09232
C         33.24229         3.52757        -0.07848
C         34.43835         1.39536         0.20212
C         34.48449         4.22789        -0.07457
C         33.26969         6.35266        -0.27921
C         33.25052         7.82281        -0.46143
C         34.49942         5.65379        -0.15871
C         34.58622         8.57425        -0.31202
C         33.29666        10.66699         0.13127
C         33.26308        12.09488         0.41292
C         34.52478         9.98560         0.09172
C         34.45645        12.78843         0.65916
C         33.23243        14.92885         0.69125
C         33.24190        16.34492         0.76921
C         34.47559        14.21861         0.72690
C         34.43635        17.05490         0.60911
C         33.18264        19.20195         0.57315
C         34.43103        18.50224         0.49455
C         35.67323         2.06883         0.16097
C         35.70958         3.49885         0.02933
C         36.89545         1.35352         0.30666
C         36.95769         4.19046         0.02273
C         35.75190         6.36151        -0.06774
C         35.79255         7.78357        -0.02965
C         36.96030         5.61000        -0.00561
C         36.99917         8.47486         0.29851
C         35.76913        10.61624         0.45868
C         35.72033        12.04549         0.85824
C         36.96570         9.91553         0.50485
C         37.00966        12.79830         1.06814
C         35.69155        14.94719         0.75641
C         35.67761        16.34461         0.55223
C         37.01305        14.32214         1.13416
C         36.89374        17.04965         0.27959
C         35.62213        19.16821         0.23280
C         36.85828        18.46276         0.07926
C         38.12059         2.01246         0.34637
C         38.18549         3.44459         0.18152
C         39.33500         1.27947         0.59760
C         39.43534         4.08664         0.28498
C         38.21870         6.35369        -0.03713
C         38.20599         7.75718         0.36206
C         39.56931         5.52676         0.06030
C         39.48235         8.43451         0.66078
C         38.24393        10.59217         0.98732
C         38.27295        12.08813         0.75387
C         39.49691         9.90190         0.51231
C         39.42047        12.75345         0.41782
C         38.18574        14.96345         0.43560
C         38.12949        16.32280         0.13389
C         39.51579        14.26889         0.56548
C         39.31565        17.03446        -0.29929
C         38.03362        19.14140        -0.29253
C         39.25069        18.44574        -0.50842
C         40.52410         1.92291         0.77442
C         40.60935         3.35491         0.66080
C         41.81309         4.03078         0.90859
C         40.79730         6.19884         0.47548
C         40.79645         7.68369         0.59102
C         41.88283         5.43988         0.87486
C         41.96212         8.47314         0.15919
C         40.65688        10.57058         0.20782
C         40.64106        12.02938         0.07480
C         41.87888         9.81214        -0.02973
C         41.71094        12.72773        -0.44304
C         40.59885        14.90303        -0.28063
C         40.53703        16.34103        -0.51957
C         41.65687        14.13438        -0.68706
C         41.66063        17.06547        -0.95887
C         40.41345        19.14050        -0.93918
C         41.59455        18.45104        -1.16324
O         26.29786        10.24651         1.60483
O          3.16478         7.97317         2.79007
O         11.42453        14.41523        -2.32899
O          3.01463        12.92339         2.34626
O          6.28042        16.71410        -1.94372
O          9.16210        10.16177        -1.40253
O          2.93790        14.31257        -0.89148
O          7.50105        13.75699         1.53459
O         24.73577        18.40185        -1.00071
O         16.35329         2.63911         0.98931
O         20.83561        16.06371        -2.14015
O         33.99598         8.29215        -1.62732
O          8.06997         4.24918        -1.36157
O         24.99163        13.51607        -1.75792
O         40.19355         8.02165         1.89626
O         21.24083         2.28070        -1.41435
O          9.55596        15.06544         0.87605
O         26.72690        13.56793         1.46776
O         16.38922         8.09226        -2.44482
O         39.05315         6.04364        -1.20732
O         19.34339         5.89010        -2.44444
O         13.31455         8.39458         1.36839
O         36.28941        12.24483         2.23674
O         30.40039         6.17335        -1.96217
O          3.11004        10.45352         2.80300
O         31.95762        17.03140         2.62323
H         31.16504        17.53405         2.90945
O         22.41395         9.64443        -2.45119
H         22.44410        10.54427        -2.84376
O         14.53667        12.69863        -2.84431
H         13.69007        13.14121        -3.07176
O         37.21021        14.64490         2.56402
H         36.64148        14.01067         3.06195
O         12.20856         3.93165         2.00458
H         13.01197         4.19830         2.49997
O          2.84592         6.44328        -1.10485
H          2.20967         6.08993        -1.76051
O         27.99944         6.86402        -2.29805
H         27.94802         6.02864        -2.82228
O          5.04811        14.88324         2.09559
H          5.89597        14.50831         2.43470
O         39.92640        14.49389         1.95987
H         39.10219        14.49292         2.50822
O         25.53843        19.25079         2.53485
H         25.73132        18.35891         2.89025
O          8.58880        15.84934        -2.45303
H          7.68489        15.96179        -2.83633
O         27.33694         4.29336        -2.47064
H         26.97137         3.45811        -2.86465
O         23.86308         4.22667        -2.10514
H         24.31701         4.94395        -2.59645
O          6.73717         9.47325        -1.24906
H          7.52305         9.41217        -1.84369
O         22.45097        14.18172        -2.84004
H         22.13224        15.04395        -3.19530
O          7.70000         9.15494         2.25833
H          7.77456         8.39172         2.86915
O         38.24934        10.39582         2.43888
H         37.50002        10.93394         2.79376
O         30.84165         7.41550         1.51141
H         30.75437         8.24741         2.02463
O         23.72931         3.84266         1.48801
H         23.36201         3.16721         2.09672
O         11.48599         3.88907        -1.58553
H         10.67884         3.63717        -2.08379
O         25.65913         2.54818        -2.13835
H         24.77916         2.77467        -2.53460
O         16.81576         5.17995        -2.74511
H         17.66275         5.21654        -3.24696
O          3.46752         5.51774         2.37203
H          3.19828         6.19250         3.04418
O         21.79696         5.75849         1.58263
H         22.56191         5.30174         2.00847
O          9.92928         5.37173         2.25732
H         10.73903         4.82541         2.44741
H          0.37288         1.74001        -0.62982
H          0.35884         4.18214        -0.28723
H          2.50762         0.46020        -0.61918
H          0.29755         5.95664         0.50803
H          0.24096         8.08744         1.62845
H          0.31555        10.07767         0.93591
H          0.25287        12.44529         0.48034
H          0.14148        14.61805         0.87868
H          0.22211        17.05439         0.67952
H          1.47875        19.17281         0.34335
H          4.96165         0.42745        -0.47008
H          3.61285        20.37815        -0.02712
H          7.43722         0.38507        -0.33310
H          6.09046        20.34038        -0.25784
H          9.92303         0.33648        -0.01008
H          8.54098        20.30244        -0.34875
H         12.35444         0.30334         0.08130
H         11.01340        20.28329        -0.29808
H         14.56084         0.14205        -0.39538
H         13.47935        20.24123        -0.08318
H         17.30753         0.13109        -1.00924
H         15.91442        20.16632         0.28375
H         19.44753         0.03567         0.20678
H         18.33496        20.07987         0.69492
H         22.19073         0.35814         1.17176
H         20.74131        20.03216         1.00559
H         24.74648         0.33496         0.62767
H         23.12482        19.93154         1.50839
H         27.07899         0.62661         0.94163
H         25.85811        20.30915         0.79613
H         29.47706         0.47306         0.61613
H         28.27322        20.26609         1.18227
H         31.94244         0.36682         0.41206
H         30.72610        20.31843         0.79721
H         34.42341         0.30335         0.33416
H         33.17860        20.29076         0.41044
H         36.86175         0.26117         0.43265
H         35.61824        20.26091         0.10485
H         39.27422         0.18531         0.69050
H         38.00267        20.22964        -0.45092
H         41.43667         1.35843         1.01441
H         42.70320         3.45340         1.19528
H         42.81728         5.93877         1.16878
H         42.89191         7.93904        -0.08726
H         42.77678        10.34744        -0.36715
H         42.62489        12.20167        -0.74861
H         42.49510        14.58369        -1.23844
H         42.61812        16.55292        -1.12269
H         40.36322        20.22761        -1.09430
H         42.49190        18.99142        -1.49555
