         344
 CSIRO Nanostructure Databank - Neutral Graphene Oxide Data Set
C          2.20413         4.10519        -3.08034
C          1.17673         4.89423        -3.51983
C          1.52989         6.53789        -1.74226
C          0.85084         6.12402        -2.87020
C          1.32768         7.84402        -1.14473
C          0.15551         8.59181        -1.39327
C          1.18206        10.62773        -0.53764
C          0.05423         9.92678        -1.02996
C          1.13155        12.07484        -0.27087
C         -0.08002        12.79437        -0.22195
C          1.08781        14.86468         0.31845
C         -0.10031        14.15308         0.09885
C          1.16133        16.32313         0.73398
C         -0.12258        17.11115         0.68248
C          1.17226        19.19014         0.46379
C         -0.08491        18.45724         0.62147
C          1.25747        20.67573         0.80343
C         -0.02230        21.48433         0.69759
C          1.13185        23.57412        -0.15133
C         -0.06713        22.77277         0.32077
C          1.20585        25.02065         0.29437
C          0.08998        25.71863         0.77075
C          1.32359        27.80598         0.68573
C          0.15448        27.09121         1.00423
C          1.38921        29.24183         0.89857
C          4.05531         3.70349        -1.53630
C          2.96034         4.43777        -1.89333
C          3.54356         6.26504        -0.15123
C          2.54814         5.65418        -1.13964
C          3.58365         7.74320        -0.03789
C          2.41198         8.47408        -0.45418
C          3.62788        10.58194        -0.02934
C          2.36240         9.88916        -0.29949
C          3.61907        12.08232         0.02189
C          2.32423        12.78974        -0.01155
C          3.58599        14.92281         0.37753
C          2.31713        14.17918         0.22712
C          3.58762        16.31051         0.27325
C          2.28003        17.01096        -0.06491
C          3.59932        19.18299        -0.24693
C          2.31993        18.50688         0.18980
C          3.65717        20.66061         0.00328
C          2.33312        21.36606        -0.06532
C          3.66696        23.53743        -0.28248
C          2.42656        22.86473         0.27149
C          3.65590        24.98528        -0.32463
C          2.42331        25.70808         0.04009
C          3.62386        27.89759        -0.32702
C          2.45126        27.10940         0.19588
C          3.74706        29.28673         0.25552
C          2.54372        29.93801         0.71832
C          6.17034         3.36496        -0.19996
C          4.78628         3.95990        -0.24711
C          6.04078         6.17841         0.47136
C          4.77021         5.44733         0.15224
C          6.01283         7.66770         0.84716
C          4.74098         8.41927         0.43485
C          5.99407        10.59590         0.73136
C          4.78509         9.83104         0.49280
C          6.00790        11.97022         0.68515
C          4.71819        12.73061         0.83618
C          6.04793        14.89513         0.70568
C          4.80092        14.21132         0.59840
C          6.08508        16.34092         0.67740
C          4.77873        17.09857         0.74797
C          6.04675        19.18710         0.10439
C          4.86040        18.49955         0.19300
C          6.10511        20.61387        -0.14549
C          4.84568        21.34430        -0.14340
C          6.10871        23.43261        -0.68154
C          4.83091        22.79045        -0.34494
C          6.11204        24.95768        -0.73236
C          4.85433        25.68879        -0.47546
C          6.11953        27.80916        -0.33346
C          4.92164        27.12490        -0.31553
C          6.17593        29.24758        -0.12577
C          4.95000        29.93741         0.21591
C          8.61885         3.41984         0.09019
C          7.34714         4.08307         0.05481
C          8.55507         6.25176         0.00841
C          7.31719         5.50765         0.20369
C          8.54696         7.79234         0.10880
C          7.20704         8.51211         0.28005
C          8.55268        10.62147         0.74997
C          7.28259         9.85963         1.05366
C          8.53972        11.96371         0.61366
C          7.26558        12.72273         0.33905
C          8.50501        14.89588         0.98675
C          7.25074        14.17383         0.76885
C          8.55570        16.35370         0.79512
C          7.29769        17.01574         0.59911
C          8.62199        19.15442         0.08697
C          7.31486        18.42570         0.15503
C          8.60015        20.62801         0.01411
C          7.34445        21.30287        -0.18609
C          8.57186        23.44232        -0.32795
C          7.37112        22.72890        -0.38260
C          8.57547        24.90024        -0.37368
C          7.39341        25.63179        -0.49877
C          8.62624        27.81357        -0.23763
C          7.40287        27.11508        -0.73644
C          8.64590        29.20122        -0.15043
C          7.38707        29.91627        -0.13999
C         11.09022         3.45503         0.26529
C          9.83652         4.12703         0.19064
C         11.03833         6.29821         0.06214
C          9.83603         5.55944         0.13941
C         11.02074         7.75834         0.21777
C          9.81234         8.44703         0.41369
C         11.08091        10.61008         0.59222
C          9.83695         9.84961         0.99137
C         11.07530        12.00040         0.54824
C          9.79109        12.73777         0.27864
C         11.06009        14.89528         0.76104
C          9.80994        14.12723         0.88554
C         11.03864        16.30807         0.86581
C          9.79530        17.03434         0.77606
C         11.02365        19.20038         0.62112
C          9.85284        18.47254         0.54100
C         11.05985        20.62534         0.35042
C          9.81211        21.32099         0.06795
C         11.04008        23.44123        -0.18410
C          9.82271        22.74828        -0.13532
C         11.04038        24.88592        -0.24621
C          9.82225        25.58783        -0.22329
C         11.11228        27.75714        -0.14022
C          9.83318        27.03658         0.16944
C         11.11579        29.18331        -0.13268
C          9.89759        29.88530        -0.02862
C         13.56643         3.47945         0.25214
C         12.29017         4.16406         0.16156
C         13.50671         6.30034        -0.31961
C         12.26385         5.58120        -0.01149
C         13.50532         7.79861        -0.07056
C         12.26131         8.47672         0.30872
C         13.54130        10.61676         0.39978
C         12.29907         9.88695         0.46860
C         13.55026        12.02933         0.54413
C         12.29292        12.74758         0.58003
C         13.52821        14.86864         1.08818
C         12.26938        14.15681         0.69636
C         13.49645        16.35078         0.83418
C         12.29077        17.03168         0.87232
C         13.55493        19.21610         0.74094
C         12.27130        18.52323         1.12650
C         13.54945        20.65473         0.57117
C         12.26919        21.33484         0.37690
C         13.49108        23.44504        -0.05085
C         12.29724        22.74923         0.04193
C         13.50785        24.82042        -0.64994
C         12.27221        25.59985        -0.30214
C         13.55941        27.71765        -0.46451
C         12.30364        27.01879        -0.29176
C         13.56173        29.16454        -0.41758
C         12.37433        29.86145        -0.24973
C         16.03236         3.46348         0.29761
C         14.76675         4.12672         0.11956
C         15.93037         6.29446         0.46369
C         14.84625         5.56417        -0.35675
C         15.99098         7.78218         0.20874
C         14.79350         8.49349         0.14904
C         16.01474        10.61343         0.28733
C         14.78063         9.91214         0.26769
C         16.02020        12.03814         0.41755
C         14.78719        12.73928         0.56680
C         15.97280        14.90008         0.61117
C         14.79849        14.17605         0.68318
C         15.96167        16.34443         0.60278
C         14.75011        17.05064         0.73443
C         16.03610        19.18114         0.74067
C         14.73576        18.49163         0.70782
C         16.03734        20.69059         0.65253
C         14.74256        21.35948         0.47517
C         16.04478        23.49173        -0.05849
C         14.76686        22.86396         0.47930
C         16.01861        24.89474        -0.36789
C         14.79552        25.58419        -0.46516
C         16.01802        27.72379        -0.98161
C         14.75782        27.00152        -0.58639
C         16.00937        29.20428        -0.69403
C         14.82511        29.86264        -0.49558
C         18.52372         3.37619         0.46351
C         17.23150         4.15143         0.33276
C         18.45395         6.30291         0.23090
C         17.26085         5.59254         0.30954
C         18.47392         7.75205         0.19028
C         17.23667         8.47186         0.21891
C         18.47990        10.61170         0.14398
C         17.24431         9.89989         0.20454
C         18.46904        12.04908         0.19554
C         17.25764        12.73360         0.39057
C         18.45242        14.92499         0.12923
C         17.29708        14.19566         0.75829
C         18.37482        16.29331        -0.06536
C         17.19182        17.04233         0.29374
C         18.44213        19.17366         0.03169
C         17.24188        18.43862         0.34059
C         18.45076        20.63025         0.10211
C         17.29244        21.37212         0.24985
C         18.52075        23.50224        -0.20638
C         17.25947        22.80289         0.00925
C         18.53602        24.91462        -0.34206
C         17.27416        25.64128        -0.42133
C         18.52633        27.80526        -0.30933
C         17.26878        27.01123        -0.54971
C         18.46285        29.22352        -0.83521
C         17.26247        29.89427        -0.84016
C         19.74653         4.20617         0.22350
C         20.93631         6.33880        -0.00128
C         19.71715         5.57219         0.14720
C         20.92473         7.69880        -0.02073
C         19.69805         8.45761         0.07833
C         20.91545        10.65579        -0.04720
C         19.70557         9.89426         0.05342
C         20.91293        12.02907        -0.06711
C         19.70734        12.78916         0.04938
C         20.87587        14.98960        -0.29935
C         19.68195        14.20146        -0.06291
C         20.81763        16.31873        -0.54823
C         19.49795        17.01220        -0.77541
C         20.62366        19.25354        -1.09417
C         19.53972        18.50197        -0.51721
C         20.72846        20.59402        -0.92021
C         19.80198        21.30291         0.03732
C         20.95129        23.48831        -0.32410
C         19.74341        22.79180        -0.19590
C         20.96756        24.86841        -0.49864
C         19.76835        25.60532        -0.51224
C         20.89896        27.75974        -1.05450
C         19.78016        27.05419        -0.68933
C         20.86733        29.18155        -1.24452
C         19.69746        29.88663        -1.15047
O          4.02419        11.45216        -1.20613
O          5.21127         5.48083         1.54716
O          6.10255        24.14408        -1.97010
O          9.83840        12.85063        -1.14166
O         13.37689         7.22554        -1.43454
O          8.04339        18.53577        -1.13050
O          8.56460         7.12862        -1.20813
O          2.34765         5.57036         0.31463
O         16.19267        20.00644         1.96019
O          9.20446        14.32344         2.19044
O          7.44868        27.24592        -2.21629
H          6.82334        26.58442        -2.58656
O          3.31758        28.10729        -1.75774
H          4.05502        28.63366        -2.13495
O          3.56667        19.04515        -1.73172
H          2.94852        19.75780        -2.04076
O         18.60406        27.95496         1.16048
H         19.44807        28.41447         1.35739
O          9.98810         9.68392         2.44463
H          9.07206         9.65066         2.82438
O          1.61679        16.35121         2.12930
H          0.99709        15.81070         2.66323
O          1.88469        21.16134        -1.44222
H          1.67932        22.03641        -1.85701
O         14.78531        23.22370         1.91963
H         15.46138        22.65840         2.35351
O          2.01558        16.81502        -1.47239
H          2.61982        17.43460        -1.95557
O          6.06264         7.65530         2.29433
H          5.49490         6.89636         2.57867
O         12.20463        18.65383         2.59863
H         13.08140        18.39581         2.95641
O          1.07850        23.64324        -1.61215
H          0.31300        24.20034        -1.86617
O          2.55854        23.08746         1.69752
H          2.33921        22.26312         2.19336
O          4.49525        17.27956         2.20316
H          3.54126        17.06855         2.35293
O         15.51943         6.14614         1.85912
H         16.20920         6.55511         2.42273
O         13.55312        14.76403         2.57890
H         12.69825        15.12153         2.90552
O          4.02554         3.26047         0.78669
H          4.27085         3.68312         1.64023
O         15.25907         5.52420        -1.73745
H         16.06036         4.96368        -1.79781
O          9.77730        26.99140         1.67161
H         10.63076        26.61190         1.97520
O          6.80257         8.90836        -1.04926
H          7.31210         8.36835        -1.69810
O          1.67228        20.67535         2.20575
H          0.98575        20.20681         2.72503
O          7.33633         9.76211         2.50198
H          6.58882         9.19885         2.81884
O          7.22654        12.91556        -1.11649
H          8.19283        12.90640        -1.42777
O          4.28608        12.56749         2.23608
H          4.96451        12.98266         2.81027
O         18.51442         2.22557        -0.40000
H         18.54452         2.53893        -1.32681
O         19.21656        16.88343        -2.22195
H         19.21131        15.92455        -2.42971
O         17.55757        14.21529         2.21425
H         16.74340        13.89712         2.66076
O         16.04604        27.64125        -2.46536
H         16.04685        26.68813        -2.70053
O         13.42909        24.61002        -2.12428
H         13.22502        25.48054        -2.52943
O         20.39758        21.13543         1.37483
H         20.35690        20.17985         1.59276
H          2.46907         3.18453        -3.61973
H          0.61228         4.60868        -4.41835
H          0.07529         6.76360        -3.31389
H         -0.70308         8.10198        -1.87345
H         -0.88797        10.45923        -1.21753
H         -1.03537        12.28347        -0.40435
H         -1.07059        14.66652         0.15623
H         -1.08669        16.59632         0.81031
H         -1.02480        19.02774         0.65946
H         -0.96357        21.00177         1.00888
H         -1.05217        23.26777         0.28644
H         -0.84807        25.18425         0.97726
H         -0.72110        27.62514         1.40017
H          0.48662        29.75036         1.26821
H          4.33823         2.82647        -2.13756
H          2.59131        31.01016         0.96225
H          6.23369         2.27121        -0.30263
H          5.01571        30.99006         0.53307
H          8.64278         2.32247         0.01984
H          7.40449        31.00621         0.01142
H         11.11022         2.35918         0.35662
H          9.90698        30.98448         0.01311
H         13.55421         2.40890         0.51043
H         12.39073        30.96090        -0.21052
H         16.04611         2.36724         0.39636
H         14.82333        30.95493        -0.35693
H         18.58733         2.96385         1.51383
H         17.24696        30.98275        -1.01277
H         20.71079         3.67861         0.16569
H         21.88707         5.79161        -0.08049
H         21.87940         8.23188        -0.12247
H         21.88055        10.13734        -0.12401
H         21.87439        12.55162        -0.16477
H         21.85896        14.50247        -0.22734
H         21.74760        16.88615        -0.69962
H         21.34325        18.72400        -1.73532
H         21.54873        21.15204        -1.39427
H         21.90272        22.94165        -0.27029
H         21.93375        25.38166        -0.59572
H         21.84922        27.24201        -1.24871
H         21.79864        29.69362        -1.52378
H         19.67484        30.96140        -1.38476
