         404
 CSIRO Nanostructure Databank - Neutral Graphene Oxide Data Set
C          1.42925         3.71731        -1.95293
C          0.22839         4.34160        -1.64308
C          1.36446         6.49375        -1.34846
C          0.18820         5.70589        -1.33790
C          1.34435         7.89246        -1.01813
C          0.16878         8.51956        -0.46591
C          1.19516        10.75866        -0.78454
C          0.10505         9.85897        -0.26093
C          1.22200        12.12620        -0.14831
C          0.00580        12.79200         0.02221
C          1.15670        14.78448         0.78580
C         -0.03006        14.10970         0.46977
C          1.09123        16.23157         1.14802
C          0.02005        17.03240         0.53744
C          1.24345        19.11903         0.96015
C          0.06949        18.38494         0.54546
C          1.24987        20.55174         0.87956
C          0.03594        21.26361         0.71104
C          1.25098        23.36034         0.61013
C          0.03983        22.63522         0.59375
C          1.21066        24.81595         0.35750
C         -0.01392        25.59136         0.57955
C          1.24171        27.70313         0.64948
C          0.00850        26.94800         0.60999
C          1.21956        29.16509         0.58769
C          0.02872        29.84637         0.25949
C          1.21904        31.96134         0.08446
C          0.03332        31.21504         0.02701
C          1.18102        33.42779        -0.16322
C          0.04742        34.07598        -0.88439
C          1.40456        36.06199        -1.49659
C          0.12410        35.31553        -1.40402
C          1.44568        37.52378        -1.66796
C          3.87105         3.82920        -2.26435
C          2.64014         4.46393        -1.98344
C          3.81478         6.62820        -1.75727
C          2.60361         5.86967        -1.70270
C          3.79024         8.04121        -1.42828
C          2.54526         8.66999        -1.09280
C          3.72455        10.78935        -0.62310
C          2.52553        10.05593        -0.78689
C          3.71514        12.14221        -0.12967
C          2.43696        12.78067         0.17068
C          3.63516        14.73520         1.18148
C          2.38809        14.10405         0.68857
C          3.62729        16.17216         1.65228
C          2.35390        16.97037         1.54942
C          3.64253        19.15693         1.45297
C          2.42448        18.43520         1.30642
C          3.68899        20.55750         1.25336
C          2.47603        21.27219         0.98539
C          3.72931        23.43705         0.92547
C          2.47870        22.69584         0.81971
C          3.75477        24.83911         0.83482
C          2.52993        25.58356         0.47592
C          3.67756        27.71246         1.13539
C          2.44466        27.01989         0.75213
C          3.66333        29.24084         1.09910
C          2.41829        29.91299         0.68407
C          3.70854        32.02147         0.48298
C          2.44186        31.30733         0.40905
C          3.74215        33.44416         0.23244
C          2.48107        34.15426        -0.10945
C          3.75520        36.28392        -0.50710
C          2.62373        35.43233        -0.86952
C          3.79954        37.61747        -0.92547
C          2.59014        38.22457        -1.46170
C          6.32370         3.92098        -2.54577
C          5.07949         4.55799        -2.28397
C          6.26680         6.74241        -2.18391
C          5.02479         5.97525        -2.05963
C          6.23924         8.22210        -1.82980
C          4.96932         8.80382        -1.37259
C          6.19917        10.87669        -0.77394
C          4.97295        10.14574        -0.89836
C          6.16135        12.22085        -0.36558
C          4.93315        12.83703         0.00646
C          6.16477        14.99376         0.74405
C          4.95865        14.12653         0.75218
C          6.17651        16.27893         1.24237
C          4.92586        16.92030         1.74506
C          6.17114        19.17596         1.83488
C          4.87562        18.42789         1.84457
C          6.15910        20.63066         1.54976
C          4.93827        21.30154         1.32787
C          6.18317        23.44571         1.28248
C          4.95187        22.72504         1.17835
C          6.19709        24.87690         1.18149
C          4.97263        25.57321         1.00731
C          6.16218        27.74201         1.01294
C          4.96547        27.00753         1.02312
C          6.13752        29.18960         0.88576
C          4.95627        29.90988         0.87428
C          6.16881        32.07557         0.79213
C          4.93347        31.35143         0.69637
C          6.12057        33.57599         1.00995
C          4.89078        34.18415         0.37686
C          6.19317        36.40189         0.17703
C          4.86818        35.65365         0.20134
C          6.22326        37.72963        -0.47217
C          5.02209        38.34508        -0.85747
C          8.81071         3.96676        -2.61080
C          7.56124         4.61618        -2.46605
C          8.74723         6.70803        -1.94730
C          7.54816         6.01655        -2.17432
C          8.70555         8.06972        -1.35750
C          7.48453         8.87793        -1.39596
C          8.73180        10.91401        -0.77709
C          7.47471        10.19635        -0.96656
C          8.71417        12.33190        -0.48004
C          7.41145        13.01872        -0.38276
C          8.68663        15.05460         0.53562
C          7.40318        14.43912         0.15160
C          8.66662        16.38912         1.03704
C          7.41859        17.04781         1.27977
C          8.64551        19.13031         1.70863
C          7.43111        18.42121         1.60187
C          8.59238        20.57859         2.02935
C          7.37277        21.34119         1.66875
C          8.65310        23.48371         1.65918
C          7.40385        22.74633         1.53015
C          8.65679        24.92901         1.51289
C          7.42779        25.61845         1.27109
C          8.64587        27.77243         1.13764
C          7.41515        27.03676         1.10497
C          8.66189        29.19638         0.91471
C          7.40452        29.90162         0.47415
C          8.63010        32.08268         0.82529
C          7.39249        31.39259         0.78412
C          8.67735        33.57596         1.08898
C          7.41566        34.28496         0.65498
C          8.69010        36.30590         0.04750
C          7.44486        35.61339         0.29138
C          8.69650        37.66707        -0.42201
C          7.47576        38.33466        -0.68937
C         11.28350         3.99696        -2.56932
C         10.02690         4.67683        -2.49244
C         11.23128         6.85285        -2.11389
C          9.98477         6.06746        -2.15295
C         11.27282         8.17896        -1.50327
C         10.00653         8.79520        -1.07334
C         11.21908        10.96915        -1.00476
C          9.94434        10.25048        -0.94376
C         11.19090        12.43292        -0.58815
C          9.89184        13.04036        -0.24710
C         11.14683        15.02948         0.59989
C          9.89591        14.38194         0.29347
C         11.13694        16.37844         1.04446
C          9.90001        17.07984         1.23000
C         11.13323        19.19353         1.69386
C          9.88634        18.46672         1.57609
C         11.15392        20.60141         1.89874
C          9.89048        21.34371         2.14846
C         11.08217        23.55877         2.11864
C          9.83956        22.80927         1.93290
C         11.12549        24.99582         1.83674
C          9.87076        25.67537         1.61753
C         11.08323        27.86934         1.61388
C          9.84513        27.08985         1.44986
C         11.12111        29.25837         1.10713
C          9.85367        29.92024         0.89498
C         11.08501        32.05118         0.62338
C          9.84744        31.36442         0.77158
C         11.13312        33.47674         0.46039
C          9.93651        34.24319         0.58218
C         11.16644        36.34809         0.06267
C          9.91090        35.60640         0.23543
C         11.16280        37.69003        -0.54215
C          9.92398        38.32068        -0.72116
C         13.72133         3.93547        -2.23567
C         12.51491         4.63810        -2.35548
C         13.77451         6.77138        -1.73967
C         12.56494         6.11474        -2.26594
C         13.74432         8.12686        -1.34493
C         12.48548         8.83995        -1.27716
C         13.66779        10.86687        -0.48466
C         12.48550        10.21681        -0.87785
C         13.63714        12.25314        -0.06856
C         12.43590        12.99854        -0.04883
C         13.63034        14.97727         0.75010
C         12.39302        14.32359         0.45490
C         13.58282        16.34033         1.18844
C         12.37925        17.05316         1.30737
C         13.57531        19.21373         1.61738
C         12.36511        18.48419         1.58054
C         13.59405        20.62816         1.62198
C         12.36694        21.31018         1.81120
C         13.61452        23.50392         1.66158
C         12.41267        22.76393         2.05191
C         13.59720        24.90935         1.68301
C         12.37356        25.64211         1.78896
C         13.59867        27.80923         1.26469
C         12.41069        27.12174         1.74457
C         13.65675        29.30203         1.20035
C         12.31397        29.91815         0.87871
C         13.45154        31.90009        -0.03183
C         12.29688        31.30901         0.50527
C         13.45377        33.27155        -0.40615
C         12.34448        34.06161         0.00687
C         13.57175        36.08626        -0.83289
C         12.46811        35.50682        -0.08374
C         13.58948        37.51784        -1.01122
C         12.40042        38.27922        -0.87351
C         16.12572         3.83536        -1.87305
C         14.96448         4.59105        -1.97747
C         16.15724         6.66595        -1.24865
C         14.98107         6.02556        -1.68754
C         16.13443         8.00861        -0.78223
C         14.92896         8.76828        -0.85841
C         16.10440        10.75332         0.06431
C         14.90839        10.13581        -0.43238
C         16.08548        12.13162         0.46087
C         14.86069        12.88292         0.33346
C         16.18963        14.96832         0.51914
C         14.85508        14.26701         0.61452
C         16.09549        16.38805         1.01938
C         14.85652        16.97928         1.53646
C         16.09447        19.24876         1.51846
C         14.85062        18.50414         1.71137
C         16.09311        20.67698         1.38110
C         14.83342        21.37149         1.44959
C         15.99952        23.50085         0.90044
C         14.79775        22.77190         1.34266
C         16.10149        24.93543         1.17163
C         14.89534        25.62582         1.63058
C         16.10748        27.82044         0.94155
C         14.87976        27.16168         1.39562
C         16.04358        29.14919         0.32296
C         14.81974        29.78291         0.33116
C         15.55173        31.50434        -1.44294
C         14.55750        31.01441        -0.45162
C         15.51878        32.97270        -1.91723
C         14.53706        33.85660        -1.14322
C         15.67177        35.87413        -2.20365
C         14.56742        35.24660        -1.37116
C         15.93041        37.32068        -1.76688
C         14.82295        38.10687        -1.35842
C         18.57548         3.64505        -1.22396
C         17.43060         4.45300        -1.67429
C         18.56081         6.46004        -0.51288
C         17.44385         5.95484        -1.32180
C         18.48812         7.76740         0.02602
C         17.31114         8.60192        -0.20357
C         18.49755        10.50586         0.84195
C         17.29592         9.95087         0.17728
C         18.41069        11.91367         1.42860
C         17.23320        12.77631         1.08160
C         18.51371        14.84163         1.76944
C         17.32911        14.15798         1.18301
C         18.97853        16.10595         1.32347
C         17.18461        17.19840         0.90588
C         18.57083        19.22080         1.58898
C         17.27695        18.53746         1.39309
C         18.57934        20.65321         1.22701
C         17.32260        21.32859         1.14455
C         18.59555        23.50111         0.83549
C         17.33045        22.75052         0.80063
C         18.56386        24.91942         0.70008
C         17.30737        25.62395         1.02054
C         18.89458        27.88676        -0.01717
C         17.25517        27.06352         1.14698
C         18.45762        28.97371        -0.77983
C         17.26340        29.87045        -0.36405
C         17.93038        31.36669        -2.34295
C         16.78736        30.59535        -1.66891
C         18.05254        32.84109        -2.29404
C         16.87919        33.64298        -2.04340
C         18.16727        35.64105        -2.65482
C         16.92426        35.01198        -2.20988
C         18.30402        37.21470        -2.50212
C         17.17075        37.91225        -1.90251
C         19.64925         4.22188        -0.63294
C         20.73662         6.12371         0.52635
C         19.66825         5.62073        -0.24832
C         20.67416         7.39853         1.06316
C         19.55149         8.22913         0.84305
C         20.27657         9.94457         2.47439
C         19.46709         9.55472         1.43061
C         20.07873        11.18722         3.14141
C         19.15977        12.09137         2.68030
C         20.18308        15.12816         3.57095
C         19.18659        14.38167         2.92561
C         20.50196        16.42020         3.14540
C         19.87554        16.94821         2.00397
C         21.05997        19.19128         1.30593
C         19.87757        18.45278         1.77582
C         21.01083        20.52798         1.02423
C         19.80043        21.31957         1.05207
C         21.00622        23.47800         0.57919
C         19.81366        22.76705         0.83560
C         20.95048        24.80834         0.18169
C         19.75421        25.55015         0.21575
C         20.36398        27.05625        -1.71542
C         19.72244        26.85134        -0.48291
C         20.16496        28.26223        -2.39120
C         19.20862        29.19799        -1.96002
C         20.45367        31.26289        -2.67555
C         19.17076        30.55383        -2.57655
C         20.48376        32.61500        -2.72296
C         19.29476        33.43000        -2.57916
C         20.61738        35.54077        -2.86062
C         19.41014        34.86962        -2.69405
C         20.73397        36.94477        -2.67735
C         19.65280        37.73442        -2.37919
O         11.96280         6.79506        -3.40102
O         11.74832        27.75229         2.92444
O          7.29542        14.17673        -1.29912
O          5.37010        36.36914         1.39694
O          2.39427        35.32419        -2.31898
O          1.36110        16.56770         2.54738
O          5.48187        18.88038         3.10300
O         16.52126        23.07109        -0.39660
O         17.98550        36.56362        -3.77498
O         14.91561        17.57674         2.86183
O          9.15012        20.90739         3.34396
O         15.07570        26.53866         2.74267
O         19.19375        19.05245         2.92717
O          9.31265         8.05669         0.00158
O         17.78484         5.48703        -2.66173
O          6.22775         7.79324        -3.23666
O         19.19426        11.64607         0.21677
O          4.31731        16.31021         2.92738
O         12.10851        36.21185         1.15158
O         11.82852        23.17106         3.32015
O          3.55876        28.51432         2.36493
O         18.32260        16.69553         0.22696
O         11.27921        12.04392        -2.00361
O         18.23554        30.80787        -3.67773
O          1.97152        25.20765        -0.83300
O          1.56149        34.23146         1.03216
O         18.83625        13.16243         3.52207
O         18.45310        27.76684         1.30411
O          4.39414        13.89786         2.09894
O         14.37195        30.78529        -1.93012
O          7.43183        29.82516        -1.00382
H          6.63850        30.29804        -1.33499
O          0.86442        11.00690        -2.20432
H          0.87571        10.13759        -2.65940
O         14.99802        32.93517        -3.27136
H         14.33005        32.21086        -3.29364
O          5.96083        33.79241         2.46309
H          5.72853        34.74851         2.56547
O         16.50246        14.99500        -0.90698
H         17.36127        15.46957        -0.99739
O         15.20690        35.94701        -3.57720
H         15.98873        36.20175        -4.12096
O         13.96572        29.74240         2.57430
H         13.33186        29.27410         3.16671
O         17.71887        30.87932         0.55560
H         17.96141        30.43807         1.39742
O          8.71635        33.71112         2.55660
H          7.78597        33.59456         2.87713
O         16.40176        29.51998        -2.53157
H         16.68988        29.75360        -3.44499
H          1.45643         2.64134        -2.17591
H         -0.70321         3.75870        -1.62895
H         -0.77998         6.16421        -1.09673
H         -0.67780         7.88956        -0.15814
H         -0.79780        10.29928         0.18532
H         -0.93598        12.29275        -0.24138
H         -1.00003        14.61108         0.58234
H         -0.82956        16.52572         0.06017
H         -0.76847        18.93737         0.10083
H         -0.92368        20.73328         0.68442
H         -0.91305        23.15953         0.44728
H         -0.96689        25.06829         0.73722
H         -0.94213        27.48182         0.74224
H         -0.92056        29.30342         0.17171
H         -0.91639        31.71252        -0.21017
H         -0.91910        33.55120        -0.90820
H         -0.77133        35.78029        -1.84514
H          0.52263        38.04328        -1.96608
H          3.88722         2.74740        -2.46234
H          2.60379        39.31004        -1.64087
H          6.33092         2.84187        -2.75857
H          5.05547        39.36448        -1.26962
H          8.83578         2.88708        -2.81819
H          7.51009        39.34756        -1.11751
H         11.27540         2.90571        -2.70943
H          9.89239        39.34151        -1.12943
H         13.72133         2.84221        -2.35922
H         12.42324        39.33828        -1.16941
H         16.06194         2.73726        -1.91442
H         14.93263        39.20072        -1.31178
H         18.53802         2.55609        -1.37626
H         17.31991        38.94455        -1.54972
H         20.50631         3.60215        -0.32965
H         21.61045         5.48546         0.72031
H         21.51648         7.76702         1.66375
H         21.02122         9.25145         2.88782
H         20.60811        11.38805         4.08139
H         20.65061        14.71347         4.47311
H         21.19703        17.03752         3.72986
H         21.99903        18.64009         1.14938
H         21.94425        21.01764         0.71193
H         21.97697        22.96553         0.58992
H         21.87194        25.30678        -0.15116
H         21.02590        26.28664        -2.13566
H         20.72579        28.46447        -3.31419
H         21.38603        30.67987        -2.67555
H         21.45615        33.11447        -2.82275
H         21.55142        34.97724        -2.98340
H         21.74398        37.37780        -2.64734
H         19.79209        38.75527        -1.99529
