         286
 CSIRO Nanostructure Databank - Neutral Graphene Oxide Data Set
C        -10.89796         0.65269         0.99150
C         -9.60291         1.42594         1.14343
C         -8.45912         0.68855         0.42417
C         -7.15806         1.42018         0.22906
C         -5.87605         0.68757         0.50580
C         -4.48469         1.30302         0.23781
C         -3.84259         0.77830        -1.02887
C         -2.49088         1.48780        -1.25465
C         -1.21798         0.72210        -1.62065
C          0.09041         1.42469        -1.38737
C          1.40920         0.65127        -1.20827
C          2.61458         1.38512        -1.85013
C          3.94634         0.60730        -1.56812
C          5.10183         1.19267        -0.72261
C          6.48217         0.58342        -1.13560
C          7.60394         1.26710        -0.35003
C          8.71789         0.59572         0.11763
C          9.84772         1.31459         0.72792
C         10.98543         0.59186         1.30307
C         -9.77939         2.91255         0.84253
C         -8.98031         3.88602         1.26229
C         -6.98588         2.90963         0.04809
C         -5.82255         3.54391         0.75587
C         -4.52715         2.80997         0.43804
C         -3.33736         3.55662        -0.01850
C         -2.39097         2.93057        -0.83568
C         -1.15350         3.57753        -1.28230
C          0.07306         2.80742        -1.32241
C          1.32614         3.61951        -1.34834
C          2.63114         2.88845        -1.44382
C          3.82638         3.51958        -0.80360
C          5.09344         2.72952        -0.62537
C          6.39243         3.48998        -0.68504
C          7.73642         2.76322        -0.56071
C          8.70652         3.47217         0.36189
C          9.82815         2.68291         0.81671
C         -8.34815         4.96266         1.70268
C         -7.26445         5.77191         0.97777
C         -5.85514         5.05042         1.03724
C         -4.81903         5.79806         0.20919
C         -3.51892         5.05154        -0.04957
C         -2.35912         5.94818         0.12318
C         -1.04216         4.95834        -1.59519
C          0.12404         5.76542        -1.20486
C          1.28611         5.07022        -0.97545
C          2.60069         5.83366        -0.98522
C          3.84808         5.00836        -0.74339
C          4.99523         5.63089        -0.39602
C          6.31536         4.94871        -0.38489
C          7.38219         5.63365         0.46078
C          8.63979         4.80783         0.61063
C         -6.99631         7.10187         1.68499
C         -5.85965         7.79815         1.42503
C         -4.99014         7.35421         0.25030
C         -3.66546         8.20149         0.12556
C         -2.47629         7.35609        -0.40097
C         -1.17916         8.04097        -0.64936
C          0.12218         7.32950        -1.12738
C          1.28146         7.88278        -0.29737
C          2.52738         7.09169        -0.11827
C          3.81143         7.81438         0.20203
C          5.06776         7.08027        -0.08457
C          6.35704         7.75741        -0.55840
C          7.54136         7.09026         0.09918
C         -5.52270         9.03616         2.12597
C         -4.29838         9.60579         2.08944
C         -3.16044         8.93052         1.36574
C         -2.07460         9.85404         0.82829
C         -1.08046         9.40488        -0.03521
C          0.14793        10.10989        -0.14401
C          1.36693         9.37967        -0.22774
C          2.58846        10.01786        -0.14447
C          3.84033         9.33798         0.34632
C          5.14331         9.93585        -0.15454
C          6.27025         9.25756        -0.41533
C        -10.92928        -0.69051         0.85361
C         -9.72369        -1.49546         0.67077
C         -8.45136        -0.79190         0.71110
C         -7.25350        -1.46210         0.79808
C         -5.95759        -0.78631         0.50806
C         -4.78895        -1.54170        -0.06879
C         -3.73932        -0.77194        -0.88491
C         -2.54075        -1.52513        -1.37537
C         -1.24977        -0.82319        -1.88532
C          0.02461        -1.44717        -1.28018
C          1.31183        -0.77144        -1.79952
C          2.60335        -1.62716        -1.63172
C          3.95090        -0.90546        -1.59038
C          5.15767        -1.55804        -0.95085
C          6.35795        -0.91537        -0.84344
C          7.57409        -1.62405        -0.32643
C          8.79793        -0.81608        -0.20041
C          9.69889        -1.40668         2.06799
C         10.93648        -0.61912         1.89484
C         -9.81985        -2.82755         0.31346
C         -8.72408        -3.65881        -0.18432
C         -7.61806        -3.04134        -1.01053
C         -6.23264        -3.69108        -0.79837
C         -4.94137        -2.97977        -0.44848
C         -3.71730        -3.76141        -0.83303
C         -2.46525        -3.02475        -1.16805
C         -1.16181        -3.68341        -0.86126
C          0.05295        -2.82213        -0.68009
C          1.38082        -3.50796        -0.29349
C          2.55971        -3.04886        -1.15157
C          3.92634        -3.74959        -0.96303
C          4.95497        -2.87732        -0.27728
C          6.05312        -3.51783         0.50341
C          7.41970        -2.93458         0.43115
C          8.32089        -3.44981         1.58313
C          9.62057        -2.69895         1.61586
C         -8.66684        -5.00561         0.02291
C         -7.60950        -5.89739        -0.60779
C         -6.21951        -5.17325        -0.64044
C         -4.98564        -5.70159         0.11232
C         -3.71394        -5.06707        -0.45387
C         -2.44953        -5.83712        -0.15671
C         -1.15705        -5.11550        -0.46481
C          0.01371        -5.79861        -0.41083
C          1.29711        -5.06400        -0.20041
C          2.55857        -5.88030        -0.14899
C          3.88377        -5.21986        -0.43374
C          5.08181        -5.88284         0.20891
C          5.99870        -4.97750         1.06599
C          7.34628        -5.71077         1.22258
C          8.46715        -4.95329         1.42108
C         -7.44471        -7.22563         0.07032
C         -6.47409        -8.12920        -0.46109
C         -4.87221        -7.24326         0.23064
C         -3.82749        -7.96178        -0.58435
C         -2.51564        -7.25094        -0.72166
C         -1.24615        -8.06118        -0.68183
C          0.03079        -7.30132        -0.50201
C          1.15123        -8.00436         0.24000
C          2.54948        -7.39994        -0.11554
C          3.41612        -7.91676         1.09668
C          5.16328        -7.35102         0.56988
C          5.96242        -7.80682         1.82139
C          7.23813        -7.14465         1.34381
C         -6.23917        -9.46504         0.16660
C         -5.04530       -10.07442         0.11727
C         -3.84839        -9.50692        -0.62755
C         -2.54820       -10.08131        -0.10127
C         -1.35002        -9.46470        -0.15899
C         -0.13061       -10.18877         0.44436
C          1.21009        -9.54627         0.01753
C          2.44068       -10.14885         0.69256
C          3.52321        -9.42791         1.09095
C          4.77584       -10.02065         1.57427
C          5.90372        -9.32413         1.85324
O         -1.99462         5.51927        -2.33889
H         -2.75244         4.91331        -2.48756
O         -0.33238        -7.83238        -1.81861
O          4.92755        -5.86420        -1.23938
O          3.00564        -7.84718        -1.38400
H          2.70763        -8.78286        -1.53914
O         -0.15142        -1.61961         0.15244
O         -3.96475        -9.91454        -2.00460
H         -4.70945        -9.40315        -2.39596
O         -4.79504        -7.64546         1.53877
H         -5.14599        -6.90536         2.09634
O         -1.68570        -3.63402        -2.24431
O          3.19549        -7.35822         2.22972
O         -4.47505         5.37259        -1.12834
O         -7.49172         3.48325        -0.89783
O         -7.78747        -2.22402        -1.89004
O          2.38325        -2.76597        -2.55973
O          2.74911         6.34487        -2.34122
H          2.63478         5.58227        -2.95450
O          7.58090        -3.17855         2.79963
H          6.75392        -3.76543         2.81660
O         -5.08463         2.88685         1.82587
O          1.52627         7.13725         0.93488
O         -1.25234        -1.03069        -3.29433
H         -1.79955        -0.31766        -3.69332
O         -2.15567         7.83166        -1.73623
O         -4.49542        -2.58891         0.93863
O          6.54813         4.47874        -1.76451
O          4.61965         7.24993         1.31658
O          1.71275         0.54322         0.19612
H          1.09207        -0.10164         0.61149
O         -0.26008       -10.22633         1.86350
H          0.04277        -9.35009         2.20740
O          1.14878        -0.63188        -3.20655
H          1.20314        -1.52198        -3.61552
O         -3.68963        -1.29821        -2.25309
O         -7.98609         0.95284        -0.90705
O         -3.56082         0.83486         1.24514
H         -3.92399         1.10043         2.12040
O          7.93438        -2.93016        -0.93487
O         -3.43900        -7.36141        -1.84185
O          1.70108        -2.98724         1.00811
H          2.09397        -3.71511         1.55157
O          1.92617        -5.42735         1.08690
O         -2.04258         1.37230        -2.64852
O          4.34866        -0.12172        -2.76474
O         -5.94268        -4.59841        -1.93225
O          4.91690         0.68411         0.61311
H          4.27190         1.27153         1.07554
O          2.14645         3.63291        -2.60785
O          2.43109         1.35967        -3.25704
H          3.06426         1.97066        -3.68322
O          5.01683        -2.71244         1.16045
O          0.76606        -7.76971         1.61422
H          1.56248        -7.46139         2.14243
O          8.40899         2.83454        -1.85030
H          7.84588         2.36885        -2.51320
O         -5.74300        -0.02620         1.77779
O         -3.92569         9.25835        -0.80147
H         -4.69864         8.93009        -1.34594
O          4.22960         3.04666         0.52931
O         -4.71165         1.06932        -2.11665
H         -4.33734         0.65212        -2.92377
O          5.48473        -4.84460         2.34482
O         -5.14397        -5.19916         1.46814
H         -4.23921        -5.03628         1.82652
O          6.75977         0.82096        -2.52823
H          6.03444         0.37995        -3.04423
O         -5.72341         7.65682        -0.91998
O         -1.44102         5.66044         0.88928
O          5.45429        -7.34382         3.03016
H          5.36055        -6.34089         2.99089
O          8.67704        -0.79993         2.70876
H          7.99586        -1.49755         2.92559
O         -6.25765        -8.13055        -1.82239
H         -6.79997        -7.39879        -2.22561
O          4.51368        -3.80603        -2.28040
H          3.92971        -4.32113        -2.87542
O         -7.97604        -6.12620        -1.99564
H         -7.68394        -5.33663        -2.51015
O          1.36230        -9.85356        -1.39648
H          0.65924        -9.35766        -1.89033
O          6.40890         7.51374        -2.00018
H          6.75488         6.60751        -2.15486
O          5.43677        -8.14701        -0.51004
H          5.23244        -7.62754        -1.32841
O         -2.55269         7.95812         2.25083
H         -2.29838         8.40425         3.08471
O         -7.68722         5.99785        -0.35411
H         -7.04849         6.64129        -0.78561
O          0.33282         7.79804        -2.47029
H         -0.54080         7.77883        -2.92344
O          9.88723        -1.29046        -0.77200
H          9.67640        -2.21164        -1.08174
O          6.85535         5.60521         1.83709
H          6.08650         6.21869         1.90099
O         -2.45835        -5.96142         1.31180
H         -1.57361        -6.27144         1.60984
O          3.81596         9.64656         1.77632
H          4.20987         8.86930         2.23698
O         -9.20152         1.30419         2.53827
H         -9.88664         1.73441         3.09081
O         -5.42713         5.25228         2.40513
H         -4.95210         4.43616         2.69437
O         -7.12844        -2.64884         1.46585
H         -6.17294        -2.80238         1.67589
H         11.87323        -1.07855         2.24595
H         11.95102         1.12143         1.27381
H         10.64729         3.19799         1.34107
H          9.45080         5.27238         1.19451
H          8.13768         7.68920         0.80852
H          7.17990         9.81893        -0.68066
H          5.18304        11.03698        -0.13783
H          2.60019        11.11955        -0.12500
H          0.19043        11.17140         0.14739
H         -1.98941        10.87640         1.23617
H         -4.09883        10.53263         2.65026
H         -6.31846         9.50399         2.72838
H         -7.69041         7.44822         2.46883
H         -8.64471         5.34602         2.69854
H        -10.67273         3.19536         0.25550
H        -11.84469         1.21008         1.07229
H        -11.89896        -1.20886         0.79228
H        -10.80708        -3.31199         0.38081
H         -9.46902        -5.50052         0.59145
H         -7.65556        -7.27891         1.14921
H         -7.07375        -9.92424         0.71854
H         -4.92226       -11.06293         0.58620
H         -2.59154       -11.10187         0.31185
H         -0.14556       -11.24826         0.08045
H          2.47539       -11.25023         0.73339
H          4.79705       -11.11988         1.65805
H          6.79754        -9.87254         2.18921
H          7.93634        -7.76909         0.76092
H          9.41322        -5.41983         1.73207
H         10.48755        -3.13117         1.09764
