         276
 CSIRO Nanostructure Databank - Neutral Graphene Oxide Data Set
C        -11.28285         0.51106         0.24553
C        -10.11196         1.36501         0.56802
C         -8.84410         0.65518         0.99776
C         -7.49829         1.37706         1.08977
C         -6.40121         0.76686         0.18564
C         -5.08267         1.47718         0.52201
C         -3.78167         0.75118         0.43470
C         -2.48968         1.50057         0.50212
C         -1.31537         0.81139         0.49838
C         -0.07329         1.42054         1.06296
C          1.22121         0.66049         0.85336
C          2.50125         1.40017         1.01471
C          3.87681         0.79228         0.80906
C          4.82720         1.42713        -0.17932
C          6.08139         0.64036        -0.32970
C          7.33248         1.36304        -0.68441
C          8.37754         0.56399        -1.06548
C         10.28937         1.68550        -0.64182
C         11.34228         0.75290        -0.22014
C         -9.96571         2.70630        -0.01189
C         -8.79479         3.46017         0.10565
C         -7.61496         2.90833         0.84314
C         -6.34555         3.69178         0.72563
C         -5.08199         2.96979         0.24641
C         -3.78032         3.72578         0.55766
C         -2.58441         2.91354         1.01862
C         -1.36339         3.61074         1.58055
C         -0.04425         2.82930         1.62320
C          1.35755         3.54821         1.88741
C          2.44189         2.89687         1.01096
C          3.65129         3.61425         0.46670
C          4.83332         2.94688        -0.31163
C          6.24708         3.51726        -0.10847
C          7.35815         2.82943        -0.54232
C          8.67130         3.56313        -0.88787
C          9.89301         2.90836        -0.23382
C         -8.62197         4.64114        -0.65574
C         -7.43444         5.46284        -0.63996
C         -6.35794         5.07335         0.20014
C         -5.23450         5.99002         0.63954
C         -3.84833         5.21150         0.75359
C         -2.57680         5.86846         1.22963
C         -1.38849         5.13537         1.86046
C          0.00278         5.85402         1.69603
C          1.29991         5.08723         1.67747
C          2.60867         5.80337         1.32931
C          3.82727         5.02488         0.92899
C          5.10699         5.73933         0.57575
C          6.32658         4.97396         0.17863
C          7.52542         5.72981        -0.27474
C          8.63272         5.04971        -0.61876
C         -7.31524         6.58346        -1.48938
C         -6.27778         7.62803        -1.21516
C         -5.13806         7.16685        -0.33429
C         -4.13940         8.07227        -0.17901
C         -2.40982         7.19760         1.03083
C         -1.15295         7.76005         0.50658
C          0.06697         7.31465         1.24262
C          1.34735         8.02358         0.94328
C          2.63613         7.27391         1.03315
C          3.78349         7.91648         0.67741
C          5.02507         7.20209         0.16790
C          6.34808         7.93883         0.47739
C          7.53025         7.25146        -0.25851
C         -5.76550         8.47446        -2.36247
C         -4.59968         9.16111        -2.30579
C         -3.65300         8.98272        -1.20018
C         -2.35164         9.42875        -1.22066
C         -1.15575         8.86631        -0.50496
C          0.14682         9.57280        -0.63693
C          1.28916         9.16193        -0.03721
C          2.59226         9.84816        -0.41374
C          3.74644         9.42612         0.51388
C          5.05003        10.02054         0.03048
C          6.22145         9.37725         0.02621
C        -11.30844        -0.82421         0.45326
C        -10.10158        -1.61645         0.78679
C         -8.81605        -0.85264         0.93241
C         -7.63210        -1.45739         0.22316
C         -6.31502        -0.75019         0.36040
C         -5.05131        -1.44372        -0.02234
C         -3.79066        -0.63228        -0.15688
C         -2.48932        -1.35001        -0.28789
C         -1.28968        -0.71184         0.41379
C         -0.02389        -1.30015        -0.21317
C          1.28353        -0.51371        -0.10724
C          2.53383        -1.37765         0.18218
C          3.83095        -0.70970         0.55313
C          5.08063        -1.44038         1.00961
C          6.21593        -0.75176         0.21094
C          7.32669        -1.46610        -0.05042
C          8.51069        -0.91014        -0.79745
C          9.77715        -1.25987         0.15048
C         11.11665        -0.57279        -0.08827
C        -10.03578        -3.07018         0.45545
C         -8.85878        -3.70619         0.16772
C         -7.66866        -2.89175        -0.19759
C         -6.38287        -3.57725        -0.64062
C         -5.08941        -2.80543        -0.66688
C         -3.74623        -3.49153        -0.99774
C         -2.50290        -2.83937        -0.38742
C         -1.33590        -3.53716        -0.25138
C         -0.06583        -2.78166        -0.47552
C          1.20425        -3.58595        -0.70229
C          2.41430        -2.78175         0.64293
C          3.66338        -3.61231         0.64128
C          5.00782        -2.92949         0.63927
C          6.15634        -3.58905         0.37528
C          7.46139        -2.83815         0.62045
C          8.72682        -3.56099         0.16041
C          9.85416        -2.76899         0.02073
C         -8.70462        -5.14484         0.20355
C         -7.53052        -5.79662        -0.07483
C         -6.34274        -5.11301        -0.73067
C         -5.00024        -5.68357        -0.21915
C         -3.75039        -4.95469        -0.57946
C         -2.43031        -5.67250        -0.90823
C         -1.31947        -5.05593        -0.04085
C          0.01364        -5.72795        -0.29657
C          1.17878        -5.02949        -0.24286
C          2.49603        -5.72218        -0.38163
C          3.68952        -5.07756         0.26285
C          5.03897        -5.81068         0.28175
C          6.22639        -4.95474        -0.31534
C          7.52768        -5.73958        -0.05145
C          8.72789        -4.97560         0.04313
C         -7.41971        -7.22439         0.14258
C         -6.23006        -7.89764         0.14979
C         -4.90083        -7.18296         0.12840
C         -3.81543        -7.93149        -0.64795
C         -2.53259        -7.20687        -0.90067
C         -1.21236        -7.94925        -0.91727
C          0.03703        -7.20446        -0.57277
C          1.27897        -7.94590        -0.09570
C          2.52303        -7.20085        -0.54573
C          3.81728        -7.95610        -0.62163
C          5.12775        -7.16711        -0.51520
C          6.30553        -7.99854         0.06826
C          7.54994        -7.12890        -0.02979
C         -6.12072        -9.30725         0.49649
C         -4.96618        -9.99493         0.35962
C         -3.80722        -9.51163        -0.48526
C         -2.44337        -9.87501         0.03118
C         -1.25390        -9.50745        -0.81635
C          0.07643       -10.11385        -0.40832
C          1.29825        -9.43879        -0.37103
C          2.53208       -10.13079        -0.36299
C          3.81787        -9.45345        -0.60925
C          5.16509       -10.10257        -0.62763
C          6.30791        -9.39212        -0.54965
O         -3.09084        -0.66410        -1.43814
O         -0.24725        -1.78696        -1.55314
O         -7.03307         3.59340         2.00768
O         -3.45757         4.62054        -0.56154
O         -9.72996         1.21150         1.99749
O         -2.35397         2.97619         2.44788
O          9.51766         1.08638        -1.68440
O         -4.26393        -4.94046         0.80956
O         -0.31401        -7.51311        -1.97120
O          3.40769        -4.66366         1.65598
O         -8.01259        -1.81042        -1.13721
O          5.05649         0.74012        -1.42782
O          3.54515        -1.14514        -0.81158
O         -5.92974        -2.91423        -1.85706
O          6.09063         5.37172         1.60413
O          1.92973         0.61553         2.11898
O         -9.41096        -1.45557         2.10548
O          3.56665         5.31959         2.33641
O          0.60396         8.25838         2.19911
O          1.88535        -3.36665        -1.74750
O         -3.47931         8.07751         1.05267
O          2.41580         3.45032        -0.33058
O         -3.48412        -7.55710        -1.98921
O          3.74103        -8.67843        -1.89867
O         -1.00965         7.41879        -0.92598
O         -0.22885         1.69227         2.50086
O          0.78055         5.69082         2.91538
O          6.04870        -4.72528        -1.64578
O          7.59558        -2.63253         2.00294
O         -5.49445        -1.37625         1.37925
O          2.55457        -6.31301        -1.71433
O         -4.47263         0.96826         1.71766
O         -1.70242         5.27565         3.26378
H         -0.87086         5.15824         3.77712
O          1.47424         0.12246        -1.37951
H          1.40522        -0.57515        -2.07137
O          2.44403        11.26523        -0.35688
H          2.48585        11.50772         0.59466
O         -3.56648        -3.36719        -2.41419
H         -3.40341        -2.41685        -2.61134
O          8.79566         3.50585        -2.33144
H          9.01500         2.57419        -2.57344
O          1.65610        -2.89886         1.77387
H          1.90275        -3.74367         2.22612
O         -4.07306       -10.06427        -1.77405
H         -3.23112       -10.04079        -2.29273
O         -6.79363         0.93631        -1.18457
H         -6.32011         1.71115        -1.57448
O          4.53913         1.05610         2.06579
H          3.98298         0.69948         2.79364
O          6.59504         7.95415         1.89027
H          6.56128         7.01766         2.20855
O          6.15443        -8.36019         1.46419
H          6.26425        -7.55324         2.01779
O         -7.03865         8.57680        -0.35838
H         -7.26405         8.09993         0.47069
O          4.56346         3.27277        -1.69279
H          4.74745         2.45925        -2.22051
O         -6.39685        -5.47285        -2.12700
H         -6.12598        -4.67668        -2.64425
O          5.51653        -6.88322        -1.85373
H          4.73122        -6.57957        -2.36320
O          5.40282        -6.01928         1.64100
H          4.85567        -5.42166         2.20885
O         -2.04847        -5.33864        -2.24598
H         -2.63143        -5.82528        -2.86780
O         -1.44761        -9.97729        -2.17687
H         -0.83985        -9.45403        -2.74681
O         -7.04966         1.15586         2.42789
H         -7.74738         1.47772         3.03803
O         -1.34309        -1.18015         1.78702
H         -1.19736        -0.42789         2.40222
O          7.48268         7.69682        -1.63255
H          8.08972         7.13697        -2.16148
O          5.31616        -1.33750         2.40852
H          6.20740        -1.78564         2.55440
O          9.44825        -0.83979         1.47861
H          8.80697        -1.49581         1.89509
O          4.82413         7.21626        -1.27306
H          5.67770         7.46364        -1.71113
O          1.32649        -7.81644         1.35740
H          0.70676        -8.46466         1.75365
O         -1.58305        -5.32378         1.35523
H         -2.52575        -5.10262         1.54720
O         -5.23257         3.03176        -1.20814
H         -4.68339         3.79652        -1.52398
O          8.72683        -1.62346        -2.02898
H          7.90323        -1.59559        -2.56002
O         -4.40099        -7.28871         1.49194
H         -4.95837        -6.72797         2.07198
O          3.44471        10.02131         1.80185
H          4.14607         9.74991         2.43120
O          1.71858         3.30104         3.23758
H          1.36592         4.02899         3.79483
O         -5.57047         6.47075         1.95677
H         -4.89806         7.14739         2.20031
H         11.98868        -1.20602         0.14976
H         12.37248         1.13389        -0.12524
H         10.41461         3.42584         0.58307
H          9.54619         5.60422        -0.89067
H          8.49412         7.61044         0.20114
H          7.13591         9.89814        -0.29637
H          5.00142        11.07555        -0.28219
H          2.84949         9.57311        -1.46994
H          0.19868        10.42871        -1.32835
H         -2.07076        10.08706        -2.06146
H         -4.29747         9.79877        -3.15082
H         -6.42415         8.60223        -3.23518
H         -8.16254         6.85429        -2.13784
H         -9.46384         4.97924        -1.27929
H        -10.77380         3.07899        -0.65989
H        -12.18890         1.01771        -0.12123
H        -12.22362        -1.38533         0.20816
H        -10.94046        -3.66928         0.64654
H         -9.55595        -5.73329         0.58047
H         -8.34924        -7.78203         0.33965
H         -7.00243        -9.79604         0.94033
H         -4.93074       -11.05099         0.66669
H         -2.29490        -9.75337         1.11957
H          0.12201       -11.20434        -0.56761
H          2.51238       -11.23175        -0.37610
H          5.19884       -11.16199        -0.92796
H          7.27536        -9.89950        -0.68589
H          8.52673        -7.63140         0.08719
H          9.69167        -5.51122         0.10391
H         10.77806        -3.21614        -0.38590
