         762
 CSIRO Nanostructure Databank - Neutral Graphene Oxide Data Set
C         23.27000        25.42055         2.56237
C         22.18202        26.24442         2.67109
C         22.97861        27.76481         0.91839
C         21.99919        27.36754         1.81440
C         22.93850        29.02408         0.21929
C         21.69825        29.73518         0.01750
C         22.84294        31.54993        -1.17361
C         21.62286        30.86875        -0.73606
C         22.82410        33.04779        -1.59849
C         21.57007        33.82812        -1.57723
C         22.70951        35.83045        -0.77986
C         21.50966        35.13823        -1.19228
C         22.87826        37.22958        -0.59613
C         21.75193        38.04275        -0.27518
C         23.14880        40.04090         0.11848
C         21.88179        39.36064         0.10951
C         23.29344        41.35750         0.79848
C         22.18357        42.12976         1.35940
C         23.62204        44.10608         1.55320
C         22.43511        43.36431         1.89104
C         23.45539        46.44628         1.35581
C         22.35410        47.20163         1.78873
C         22.55619        48.59409        -0.15954
C         21.89582        48.27400         1.02631
C         25.89068        23.79996         2.35196
C         25.43634        24.72129         1.30766
C         24.17489        25.53928         1.42500
C         25.36419        27.42460         0.05394
C         24.10522        26.86333         0.60851
C         25.37542        28.82251        -0.24335
C         24.14642        29.55091        -0.27016
C         25.44190        31.70023        -0.77526
C         24.12844        30.99345        -0.61263
C         25.42020        33.07078        -1.46591
C         24.06427        33.75294        -1.22459
C         25.70068        36.08092        -0.63899
C         23.84691        34.95734        -0.60753
C         25.48760        37.34368        -1.07023
C         24.13390        38.03045        -1.02957
C         25.52927        40.14551        -0.63231
C         24.26161        39.43239        -0.44491
C         25.60047        41.56900        -0.37487
C         24.55484        42.19114         0.43870
C         25.45617        44.48179        -0.20505
C         24.52003        43.64748         0.61346
C         25.36275        45.98375        -0.38076
C         24.20061        46.77256         0.20389
C         25.54747        48.87091        -1.41789
C         23.68500        47.85661        -0.53697
C         25.58812        50.25211        -1.56221
C         28.02411        23.31846         1.21024
C         27.09097        23.13139         2.26950
C         27.80822        24.44450         0.30602
C         26.53976        25.23897         0.37077
C         27.81481        27.30169        -0.34939
C         26.54626        26.65207        -0.05808
C         27.84192        28.70597        -0.50867
C         26.63109        29.48260        -0.55174
C         27.94399        31.55027        -1.13126
C         26.65898        30.86512        -0.84878
C         27.97818        33.05205        -1.28729
C         26.70767        33.85873        -1.20439
C         28.05759        35.98208        -1.10058
C         26.80285        35.20980        -1.01483
C         27.97130        37.41047        -1.43356
C         26.63965        38.09734        -1.69777
C         27.98893        40.20319        -0.96321
C         26.66082        39.51598        -1.15376
C         27.94542        41.70641        -1.08780
C         26.73123        42.36577        -0.69256
C         27.88991        44.55541        -0.79836
C         26.72563        43.79070        -0.55955
C         27.86714        45.98628        -0.76632
C         26.64973        46.72268        -0.71403
C         27.99175        48.84233        -1.31787
C         26.68509        48.10772        -1.02053
C         27.95722        50.31961        -1.01846
C         26.76392        50.97822        -1.24163
C         30.52059        20.47620         1.61219
C         29.37567        21.28546         1.77480
C         30.28466        22.95479         0.25385
C         29.23095        22.52300         1.09868
C         30.27415        24.26529        -0.34679
C         29.03089        25.09649        -0.34922
C         30.33338        27.21210        -0.55988
C         29.05969        26.55428        -0.43674
C         30.38926        28.62157        -0.69772
C         29.16009        29.45692        -0.43754
C         30.31491        31.07297        -1.90792
C         29.13437        30.67519        -1.32728
C         30.37310        33.25604        -2.22181
C         29.21592        33.78515        -1.70678
C         30.49290        35.91499        -1.90829
C         29.30681        35.20664        -1.36944
C         30.43890        37.39353        -1.89057
C         29.16565        38.12802        -1.61235
C         30.42693        40.27672        -1.74083
C         29.15996        39.52914        -1.62273
C         30.40788        41.76103        -1.46500
C         29.11531        42.42736        -1.19477
C         30.37795        44.50200        -0.93384
C         29.14105        43.85391        -1.01351
C         30.44543        45.95867        -1.02843
C         29.14939        46.70262        -0.99691
C         30.44436        48.83263        -0.68212
C         29.22416        48.16135        -0.80716
C         30.44734        50.28745        -0.65576
C         29.21332        51.00244        -0.77796
C         30.42739        53.10172        -0.62719
C         29.22831        52.40884        -0.70601
C         32.82233        18.55475         1.03557
C         32.71658        19.92763         0.51849
C         31.53839        20.79476         0.73479
C         32.78057        22.89344         0.23872
C         31.48981        22.08738        -0.05869
C         32.86018        24.34441        -0.10554
C         31.63032        25.02334        -0.49831
C         32.82814        27.13685        -0.52478
C         31.58306        26.47612        -0.52641
C         32.86049        28.50845        -1.02030
C         31.60874        29.27963        -1.03784
C         32.90618        31.33065        -1.96397
C         31.61262        30.58353        -1.55428
C         32.93579        32.93823        -1.91219
C         31.70275        33.80780        -1.97502
C         32.96603        35.90389        -1.40774
C         31.77328        35.17151        -1.77368
C         32.93124        37.28516        -1.26574
C         31.68660        38.05503        -1.43988
C         32.96222        40.31428        -1.22808
C         31.67276        39.53612        -1.33389
C         32.67153        41.50518        -0.32165
C         31.60901        42.40472        -0.91111
C         32.69703        44.42774        -0.00206
C         31.59746        43.77001        -0.69278
C         32.78250        45.92019         0.07878
C         31.80419        46.64352        -0.87209
C         32.90918        48.83278        -0.40456
C         31.71190        48.13649        -0.57746
C         32.93549        50.26955        -0.41322
C         31.68177        50.99485        -0.53953
C         32.89676        53.21507        -0.52851
C         31.64860        52.42198        -0.57919
C         32.95826        54.58256        -1.08869
C         35.30035        18.54705         0.87889
C         34.01435        17.90604         1.10630
C         35.32071        19.92791         0.62329
C         34.07691        20.64542         0.33543
C         35.33752        22.86551         0.20795
C         34.04952        22.14288         0.45643
C         35.34107        24.36145         0.04113
C         34.03857        25.06731        -0.00532
C         35.28708        27.22815        -0.12718
C         34.05820        26.48056        -0.25940
C         35.34978        28.58054        -0.44284
C         34.18485        29.23854        -1.08375
C         35.29714        31.49659        -0.71195
C         34.05881        30.74016        -1.09276
C         35.38980        32.94033        -0.96502
C         34.19651        33.67734        -1.44969
C         35.27557        35.78303        -0.62466
C         34.16942        35.14063        -1.12959
C         35.24453        37.21373        -0.25508
C         34.03175        38.02457        -0.62611
C         35.23290        40.19676        -0.26083
C         34.11826        39.50793        -0.67695
C         35.17438        41.63603         0.04465
C         33.91375        42.24269         0.06843
C         35.53102        44.66925         0.95695
C         33.66538        43.57896         0.52021
C         35.39402        46.01633         0.67666
C         34.07616        46.68619         0.39184
C         35.38291        48.89621         0.19892
C         34.22518        48.05054        -0.33156
C         35.42034        50.31498        -0.23001
C         34.18645        50.97190        -0.39861
C         35.42951        53.16538        -0.85555
C         34.18556        52.45523        -0.44350
C         35.41634        54.65049        -0.95745
C         34.13186        55.25237        -1.23228
C         37.84830        15.85455         1.69551
C         36.63448        16.52398         1.60240
C         37.78638        18.44970         0.61757
C         36.53702        17.83132         1.08333
C         37.81121        19.95141         0.30481
C         36.58835        20.68876         0.71135
C         37.82588        22.95849         0.27683
C         36.60877        22.21076         0.59849
C         37.79617        24.38795         0.37243
C         36.57614        25.09576         0.32038
C         37.71718        27.33895         0.68225
C         36.39881        26.56120         0.68149
C         37.76164        28.72377         0.22702
C         36.53533        29.38631        -0.18490
C         37.74395        31.55033         0.09342
C         36.52910        30.76101        -0.36215
C         37.80197        32.96946        -0.39459
C         36.56427        33.62063        -0.65348
C         37.80736        35.75429         0.02271
C         36.52099        35.05441        -0.34373
C         37.78130        37.23769         0.21090
C         36.54269        37.96409        -0.21960
C         37.77690        40.16727         0.16876
C         36.52851        39.46022        -0.19349
C         37.73583        41.61148         0.14954
C         36.46753        42.42644        -0.07682
C         37.82921        44.50244         0.27137
C         36.64733        43.85334         0.53421
C         37.97498        45.94598         0.56697
C         36.67212        46.74504         0.69778
C         37.99569        48.94598         0.38546
C         36.67411        48.23282         0.55205
C         37.91899        50.37174        -0.01376
C         36.68493        50.99133        -0.25014
C         37.90252        53.22333        -0.28995
C         36.70426        52.41857        -0.65851
C         37.86746        54.71578        -0.49610
C         36.61909        55.35197        -1.00044
C         37.92046        57.37665        -1.44146
C         36.71808        56.72214        -1.41194
C         40.43987        14.43728         1.95469
C         40.38599        15.78398         1.54415
C         39.09519        16.47606         1.35963
C         40.31234        18.56220         0.69407
C         39.06467        17.77816         0.87506
C         40.18216        20.03257         1.08415
C         39.16999        20.67596         0.10413
C         40.35149        22.99306         0.48934
C         39.09831        22.22613         0.16256
C         40.27906        24.47033         0.64344
C         39.04820        25.10935         0.56249
C         40.29219        27.28129         0.34402
C         39.05371        26.57358         0.70666
C         40.25607        28.66129         0.11022
C         39.00368        29.38690         0.09646
C         40.16080        31.43907        -0.60810
C         39.01550        30.79915        -0.13909
C         40.24520        32.91921        -0.81597
C         39.03405        33.69154        -0.44016
C         40.33617        35.85051        -0.31096
C         39.09305        35.09227        -0.29335
C         40.34111        37.29429        -0.00906
C         39.05619        37.99438         0.25802
C         40.23514        40.16089         0.34490
C         38.99322        39.47617         0.18074
C         40.15814        41.61497         0.52951
C         38.91953        42.29289         0.13466
C         40.25938        44.41001        -0.15203
C         38.94929        43.70418        -0.37230
C         40.14425        45.83380        -0.46066
C         39.17324        46.65806         0.02202
C         40.49419        48.97057        -0.45200
C         39.28675        48.16259         0.13198
C         40.43876        50.42072         0.06761
C         39.16446        51.11915        -0.08114
C         40.47616        53.25838        -0.16738
C         39.17137        52.50130        -0.19810
C         40.37353        54.78168        -0.13139
C         39.15982        55.43741        -0.59453
C         40.39962        57.54923        -1.01662
C         39.14777        56.75506        -1.02391
C         40.61617        58.56780        -2.05290
C         42.86454        14.46585         1.90165
C         41.66526        13.79484         2.12997
C         42.86051        15.81459         1.48723
C         41.61001        16.45855         1.30807
C         42.85211        18.67903         1.09001
C         41.61599        17.87729         0.90770
C         42.83192        20.05993         1.08102
C         41.52682        20.78055         1.20766
C         42.84436        22.99591         1.00567
C         41.53794        22.26625         1.04784
C         42.79389        24.46977         0.73349
C         41.51249        25.19135         0.55632
C         42.77935        27.28919         0.01373
C         41.53262        26.57056         0.27123
C         42.75898        28.69157        -0.28033
C         41.45342        29.32366        -0.33889
C         43.07399        31.68114        -0.95495
C         41.25644        30.58729        -0.90966
C         42.88022        33.02573        -0.68088
C         41.59245        33.73194        -0.88277
C         42.82462        35.94948        -0.52453
C         41.54794        35.17844        -0.52665
C         42.80622        37.42225        -0.22577
C         41.49914        38.05859         0.05571
C         42.69712        40.26791         0.43971
C         41.46801        39.49626         0.30726
C         42.67879        41.64000         0.64367
C         41.41634        42.40602         0.69688
C         42.49460        44.68427         1.06355
C         41.41153        43.86348         0.34171
C         42.82874        46.11094         0.58239
C         42.04649        46.88215        -0.21522
C         42.93047        49.09891         0.55664
C         41.89007        48.35929        -0.18314
C         42.77644        50.53627         0.83946
C         41.53042        51.14673         0.54134
C         42.66974        53.40549         1.13552
C         41.35141        52.61684         0.93071
C         42.71355        54.87663         0.75730
C         41.52959        55.50234         0.08782
C         42.95413        57.41313        -0.82927
C         41.63646        56.91736        -0.36653
C         43.02564        58.47993        -1.68185
C         41.86178        59.04136        -2.31108
C         45.36561        15.85466         1.19411
C         44.09461        16.54969         1.21384
C         45.30956        18.68242         0.80796
C         44.08952        17.94305         1.02768
C         45.32588        20.06942         0.81908
C         44.07752        20.81719         0.96255
C         45.36494        23.00175         0.99815
C         44.08748        22.20350         0.88171
C         45.29142        24.33552         0.25008
C         44.01040        25.10825         0.15543
C         45.24959        27.25756        -0.13001
C         44.00991        26.58347         0.00536
C         45.25445        28.71256        -0.15403
C         44.00623        29.43141        -0.31695
C         45.26238        31.57937         0.09283
C         44.10791        30.86295        -0.40042
C         45.24832        32.97519         0.17824
C         44.11653        33.75048        -0.34320
C         45.30702        35.94770         0.29292
C         44.14541        35.24370        -0.33969
C         45.25672        37.41070         0.41123
C         44.06305        38.09562         0.20475
C         45.29747        40.29753         0.57076
C         44.01031        39.56930         0.26496
C         45.18057        41.66570         1.18419
C         43.86565        42.37331         1.15971
C         45.09025        44.63150         1.64648
C         43.79438        43.88275         1.39843
C         45.15797        46.11172         1.55309
C         43.87540        46.82177         1.38432
C         45.20372        49.00754         1.59021
C         43.92719        48.31860         1.35108
C         45.13654        50.48945         1.66373
C         43.93853        51.24949         1.18632
C         45.21076        53.36745         1.44829
C         43.94580        52.65711         1.27815
C         45.29961        54.88059         1.06581
C         44.03761        55.60729         0.67805
C         45.50511        57.11562        -0.76290
C         44.17274        56.82614        -0.20530
C         46.50766        16.47399         0.82707
C         47.84903        18.57597         0.64756
C         46.51486        17.89760         0.33793
C         47.78818        20.08204         0.51767
C         46.60433        20.79081         0.66310
C         47.78633        22.96961         0.43493
C         46.61968        22.23702         0.63801
C         47.76695        24.40624         0.26458
C         46.54359        25.11452         0.17701
C         47.73160        27.20521        -0.29285
C         46.46919        26.50527        -0.07614
C         47.73272        28.74664        -0.22838
C         46.46211        29.43048        -0.00267
C         47.69190        31.53712         0.51114
C         46.49654        30.84788         0.28005
C         47.71698        32.96331         0.86588
C         46.38819        33.73006         0.69606
C         47.67185        35.85004         1.13639
C         46.42280        35.21243         0.62394
C         47.67614        37.36322         1.20126
C         46.47045        38.12059         0.78894
C         47.71963        40.18244         1.31200
C         46.51730        39.50788         0.87638
C         47.65308        41.62040         1.69824
C         46.45618        42.44003         1.30656
C         47.61008        44.66697         2.07694
C         46.40916        43.90825         1.57052
C         47.60134        46.11845         1.86283
C         46.37078        46.81248         1.65514
C         47.65059        48.98098         1.77680
C         46.37758        48.28696         1.68853
C         47.67855        50.43953         1.98533
C         46.41751        51.22756         1.83829
C         47.77859        53.33265         1.34713
C         46.48080        52.58062         1.15331
C         47.80831        54.70676         0.98963
C         46.58420        55.37305         0.58909
C         46.62273        56.44002        -0.35304
C         50.10079        18.64159        -0.43328
C         48.95339        17.98922        -0.20557
C         50.32260        20.01895         0.07146
C         49.09470        20.76643         0.52790
C         50.29962        22.97476        -0.05911
C         49.09992        22.28431         0.46953
C         50.26630        24.42005        -0.05464
C         49.01332        25.12389         0.16301
C         50.20801        27.28311         0.06687
C         48.98054        26.50802        -0.00259
C         50.18914        28.74709        -0.03085
C         49.00658        29.42397         0.06180
C         50.25306        31.56378         0.77190
C         48.96913        30.81197         0.55993
C         50.20736        33.04734         0.82649
C         48.99931        33.73303         0.84743
C         50.20305        35.90155         1.06280
C         48.98220        35.16005         1.00906
C         50.19066        37.35311         1.16959
C         48.97839        38.06341         1.21183
C         50.20804        40.15563         1.73558
C         48.92816        39.48289         1.41964
C         50.22536        41.67109         1.94153
C         48.90732        42.37891         2.04169
C         50.14578        44.57707         1.62855
C         48.93772        43.89126         2.10736
C         50.17358        46.05376         1.68006
C         48.86744        46.83969         1.90731
C         50.08807        49.01434         1.44857
C         48.85061        48.30229         1.66452
C         50.17491        50.39886         1.51441
C         48.98178        51.18203         1.87397
C         50.23585        53.29409         1.49368
C         48.98097        52.63652         1.56761
C         50.24215        54.67949         1.21141
C         49.06362        55.36455         0.95700
C         52.60497        20.18117        -1.18884
C         51.54003        20.81420        -0.38813
C         52.53609        23.00049        -1.10034
C         51.44228        22.29285        -0.47319
C         52.48683        24.46728        -1.15388
C         51.40373        25.12504        -0.42822
C         52.72086        27.32461        -0.57507
C         51.52242        26.54932        -0.18347
C         52.73292        28.68656        -0.28663
C         51.48664        29.45053        -0.11234
C         52.79747        31.56704         0.51410
C         51.51870        30.92154         0.26743
C         52.80965        32.93452         1.01454
C         51.46496        33.74821         1.10671
C         52.70274        35.93726         1.03149
C         51.46804        35.22018         1.04766
C         52.69865        37.34169         1.08618
C         51.46073        38.08269         1.20004
C         52.71989        40.31231         1.59299
C         51.46249        39.47093         1.37177
C         52.56715        41.74862         1.10853
C         51.38351        42.43472         1.42027
C         52.46262        44.56776         0.70797
C         51.25399        43.84944         1.18751
C         52.49457        46.06425         0.57546
C         51.13505        46.77197         0.74197
C         52.61121        48.94950         1.02857
C         51.26679        48.26679         0.97044
C         52.64561        50.35665         1.46117
C         51.43782        51.09941         1.47266
C         52.72397        53.12271         1.84525
C         51.47168        52.51690         1.62694
C         53.58341        20.90790        -1.77907
C         54.73978        23.11902        -2.23760
C         53.60897        22.35638        -1.70993
C         54.91454        24.50902        -1.95654
C         53.73872        25.26289        -1.49872
C         55.11221        27.36633        -1.22541
C         53.88489        26.66874        -1.06589
C         55.22180        28.70817        -0.76299
C         54.03555        29.34374        -0.13205
C         55.32176        31.57828         0.23234
C         54.04371        30.80961         0.36600
C         55.24131        33.05502         0.20533
C         54.08725        33.70504         0.88317
C         55.22486        35.92819         0.42565
C         54.01695        35.20445         0.96539
C         55.18680        37.41686         0.43051
C         53.98199        38.08993         1.03170
C         55.03257        40.30178         0.32733
C         53.99271        39.59524         1.11329
C         54.79253        41.73306        -0.09322
C         53.71749        42.45395         0.66261
C         54.94754        44.59265         0.48883
C         53.74438        43.84944         0.68227
C         55.01370        45.99845         0.77253
C         53.79317        46.75785         0.83817
C         55.06591        48.75136         1.48941
C         53.83926        48.12701         1.09588
C         55.08385        50.13736         1.87251
C         53.87865        50.96787         1.76000
C         53.88876        52.36712         1.95448
C         56.76163        23.19301        -3.54777
C         55.71623        22.46435        -3.01673
C         56.93996        24.54592        -3.20795
C         56.07043        25.24311        -2.34443
C         57.60427        27.45983        -1.88593
C         56.31121        26.62730        -1.74856
C         57.57956        28.90827        -1.48723
C         56.43342        29.46370        -0.90409
C         57.56014        31.75458        -0.94141
C         56.50116        30.87473        -0.39881
C         57.45285        33.12939        -0.91748
C         56.28884        33.81271        -0.36657
C         57.18676        36.03997        -1.24116
C         56.22913        35.22850        -0.39104
C         57.23237        37.53072        -0.95212
C         56.15354        38.19552        -0.37472
C         57.04695        40.41862        -1.09338
C         56.05258        39.62953        -0.32962
C         57.12658        41.86818        -0.85163
C         56.06775        42.52330        -0.26499
C         57.32670        44.66572        -0.06622
C         56.11948        43.92655         0.05148
C         57.48905        45.91161         0.59422
C         56.28548        46.60878         1.01787
C         57.35213        48.54152         2.24807
C         56.25893        47.95995         1.55491
C         57.35753        49.86399         2.67855
C         56.24513        50.67539         2.43544
C         60.24279        25.12387        -3.47134
C         59.02408        25.69761        -3.26902
C         60.13050        27.75954        -2.39342
C         58.83066        27.04277        -2.68004
C         60.07681        29.07209        -1.71873
C         58.81262        29.68989        -1.51854
C         59.99925        31.85888        -1.29640
C         58.79238        31.09436        -1.30306
C         59.92796        33.29020        -1.25952
C         58.58853        33.92628        -1.51547
C         59.71941        36.15297        -1.27292
C         58.55049        35.40386        -1.23818
C         59.65702        37.61351        -1.40695
C         58.40648        38.25497        -1.33229
C         59.56283        40.49111        -1.71347
C         58.32378        39.70547        -1.56179
C         59.51129        41.92197        -1.75231
C         58.26873        42.61415        -1.39041
C         59.70149        44.72795        -0.96679
C         58.38048        44.11754        -0.93154
C         59.91336        45.90811        -0.16435
C         58.86000        46.43396         0.66017
C         60.55363        47.92978         1.68626
C         59.27079        47.38940         1.62455
C         61.43604        25.74476        -2.96231
C         61.39118        26.99808        -2.44927
C         61.26445        29.80658        -1.54795
C         61.23556        31.17330        -1.33001
C         61.06713        34.10190        -1.17183
C         60.98470        35.48706        -1.22686
C         60.81783        38.38980        -1.64213
C         60.77306        39.77680        -1.76173
C         60.63065        42.72173        -2.04660
C         60.71452        44.07297        -1.68350
C         61.20427        46.49583        -0.12540
C         61.51887        47.51134         0.76170
O         37.66746        54.12827         0.84971
O         46.86327        33.27417         2.00912
O         33.61148        53.06738         0.75963
O         41.08927        18.17477        -0.46616
O         51.40247        30.52028        -1.16189
O         57.38688        26.57160        -0.73655
O         44.56097        34.55892        -1.56857
O         22.90781        31.97303        -2.58169
O         36.98440        35.15301         1.07646
O         33.34262        20.10338        -0.79018
O         54.39961        34.41795         2.13454
O         40.61041        42.07115         1.88029
O         45.54614        51.06927         2.97737
O         35.44801        23.42280        -1.12868
O         52.13347        33.14969         2.28226
O         46.68365        43.38289         0.20962
O         42.45217        54.44702         2.14296
O         24.86332        45.08814        -1.43415
O         33.66341        28.59769        -2.26600
O         44.04740        56.94123         1.26956
O         43.01099        48.95682        -0.93821
O         44.53194        24.34969        -1.00138
O         42.89656        36.93196        -1.61862
O         33.30196        22.64545         1.60547
O         25.52977        24.28279        -0.07993
O         30.54696        41.21540        -2.84229
O         44.36318        41.67894         2.37996
O         48.42673        50.83702         3.18930
O         47.77612        28.02679        -1.50946
O         42.19036        31.04291        -1.83055
O         31.39244        38.74694        -0.14945
O         33.92294        33.40449        -2.89350
O         52.64806        25.07287        -2.49710
O         35.78432        48.79506         1.59220
O         54.17855        29.69830         1.30966
O         36.27470        42.59760        -1.48210
O         52.41514        45.24496        -0.62846
O         41.40637        21.67146         2.38321
O         45.31097        54.39190         2.44462
O         23.55513        25.61315         0.10910
O         59.36859        27.97950        -3.66969
O         47.46903        36.54199         2.41325
O         36.15449        52.59796        -2.01462
O         48.05860        41.83003         3.08463
O         30.94949        24.37103        -1.64045
O         34.28312        37.54892         0.77240
O         57.88788        43.71809        -2.24896
O         24.32674        48.24858        -1.71563
O         23.77979        45.35601         2.16663
O         36.75582        38.69078        -1.46875
O         40.82112        33.36704        -2.07088
O         42.94591        23.99203         2.12564
O         34.45989        44.01593         1.56362
O         30.40129        36.67474        -3.16512
O         40.83365        57.90990         0.33677
O         28.22994        32.45911         0.06888
O         24.72525        31.75733         0.50833
O         36.67425        21.53090         1.91326
O         38.34382        37.57585         1.51234
O         48.27821        44.32842         3.32726
O         51.86434        48.84176        -0.24766
O         57.94754        25.14566        -3.94792
O         32.98848        46.58328         1.35964
O         37.49041        46.35556         1.86471
O         38.43483        27.10332         1.94200
O         44.83489        40.20915        -0.80411
O         55.91819        36.69475         1.49733
O         57.22959        40.06067        -2.49317
O         41.22630        46.32315        -1.19286
O         28.07690        24.31387        -1.13360
O         38.95771        48.65413         1.45470
O         44.23277        44.19205         2.75597
O         50.38122        40.78120         3.06872
O         37.58296        19.02368        -0.76450
O         34.13030        31.26057         0.25765
O         43.38016        47.61805         2.52551
O         29.00103        35.63824        -0.00120
O         49.87031        46.57697         2.98558
O         30.30008        32.05081        -2.90415
O         24.44677        41.42246         1.69221
O         51.45398        20.20887         0.96431
O         49.32603        21.56343         1.73269
O         56.39902        31.01993         1.06256
O         51.08864        26.88633         1.17986
O         24.80516        35.49107         0.24663
O         29.79997        46.37064        -2.31635
O         54.46657        38.77401         2.24006
O         40.00511        22.71602        -0.90628
O         58.41701        47.74581         2.67337
O         49.62945        30.89581         1.90628
O         32.06814        40.98973         0.90057
H         32.08151        41.69927         1.57682
O         46.40056        52.30266        -0.28792
H         47.29562        52.07968        -0.62027
O         41.17782        52.98523        -1.42426
H         40.55283        53.12472        -2.16641
O         39.56120        19.99270         2.38304
H         39.93420        20.73735         2.91594
O         40.64265        52.62128         2.17083
H         40.90611        53.43114         2.66666
O         48.15979        18.29916         2.03747
H         48.91980        18.86097         2.30199
O         31.46632        21.75105        -1.45873
H         31.29067        22.58176        -1.96329
O         54.20500        41.62313        -1.44705
H         54.93504        41.46141        -2.08455
O         41.83988        44.94055         2.32376
H         42.53508        45.01802         3.02004
O         56.64413        35.94383        -2.61165
H         57.04516        35.13455        -3.02232
O         35.89384        26.57464         2.05075
H         36.68437        26.59546         2.64015
O         33.14479        30.99025        -3.32937
H         33.64873        31.72671        -3.74624
O         50.42401        46.66063        -0.51938
H         50.98335        47.09087        -1.20380
O         40.30752        49.01919        -1.87872
H         41.17260        49.24823        -2.28297
O         28.27340        40.01946         0.48505
H         28.55300        39.08909         0.63434
O         28.13838        48.77354        -2.79172
H         28.39465        47.85148        -3.02092
O         32.40375        46.50378        -2.19881
H         31.67871        46.64171        -2.85319
O         58.37044        33.82509        -3.00608
H         59.17952        34.18019        -3.43539
O         33.34042        40.76807        -2.53693
H         34.17476        41.28310        -2.46126
O         37.60295        31.68669         1.55186
H         36.83173        32.26852         1.72802
O         26.48773        38.18583        -3.14184
H         25.52425        38.30895        -3.31898
O         29.27861        29.91579         0.95873
H         28.85860        30.80526         1.02218
O         52.86919        40.49480         3.02428
H         53.29051        39.67550         3.37775
O         38.70653        43.65124        -1.80202
H         37.78900        43.25616        -1.92604
O         25.49312        32.81667        -2.89536
H         24.63381        32.41036        -3.17166
O         39.65827        20.32958        -1.18981
H         39.02141        20.62748        -1.87088
O         46.41676        17.85579        -1.12031
H         45.55022        17.45980        -1.35283
O         34.67490        47.77069        -1.68273
H         33.94953        47.28807        -2.15962
O         23.82171        38.25374        -2.46885
H         23.00215        38.79263        -2.51170
O         45.53243        23.32499         2.41029
H         44.64887        23.61550         2.74926
H         23.46957        24.66415         3.33439
H         21.46841        26.09435         3.49334
H         21.12808        28.01416         1.98923
H         20.76856        29.27022         0.37374
H         20.64677        31.29876        -0.99943
H         20.66198        33.33172        -1.94754
H         20.55517        35.67972        -1.26674
H         20.76859        37.56137        -0.16532
H         20.99451        39.89083         0.48163
H         21.18142        41.68619         1.43961
H         21.65087        43.89563         2.44824
H         21.84362        46.91026         2.71513
H         22.21496        49.42091        -0.79452
H         21.02061        48.85236         1.35061
H         25.26713        23.66592         3.24722
H         24.67713        50.78852        -1.85645
H         27.34278        22.42341         3.07223
H         26.69074        52.07245        -1.18338
H         30.57057        19.53305         2.17687
H         28.56505        20.91813         2.41766
H         30.40853        54.19895        -0.59577
H         28.29261        52.98001        -0.74514
H         31.90342        18.03309         1.34090
H         32.02157        55.08325        -1.37074
H         34.01632        16.85637         1.43199
H         34.10096        56.29486        -1.57980
H         37.84125        14.82902         2.08719
H         35.72697        15.99990         1.93322
H         37.94785        58.42671        -1.76277
H         35.81353        57.25703        -1.73128
H         39.51653        13.87312         2.13943
H         39.75986        58.91368        -2.64925
H         43.80851        13.92843         2.05814
H         41.68457        12.74457         2.45185
H         44.00191        58.89041        -1.97332
H         42.00848        59.82117        -3.07125
H         45.40242        14.79571         1.48369
H         45.60444        57.88636        -1.53838
H         47.45530        15.91639         0.81672
H         47.59513        56.71769        -0.78503
H         50.90510        18.15312        -1.00251
H         48.82229        16.96950        -0.59666
H         51.19625        55.22141         1.15407
H         49.10547        56.43774         0.72556
H         52.65898        19.08418        -1.21298
H         52.78849        54.21180         1.97552
H         54.38660        20.37346        -2.30273
H         54.83270        52.89066         2.15655
H         57.48022        22.72847        -4.23462
H         55.61997        21.40331        -3.27546
H         58.22546        50.25308         3.22531
H         56.27089        51.72164         2.76543
H         60.30915        24.17249        -4.01369
H         60.79593        48.65869         2.46963
H         62.38465        25.19268        -3.00431
H         62.29642        27.43829        -2.01197
H         62.23778        29.31156        -1.65696
H         62.18323        31.72237        -1.25867
H         62.05981        33.64391        -1.06278
H         61.91329        36.06970        -1.19290
H         61.79944        37.90251        -1.69982
H         61.71862        40.32197        -1.88742
H         61.52710        42.25400        -2.47718
H         61.67663        44.57517        -1.85241
H         61.98680        46.12289        -0.79762
H         62.52848        47.94272         0.77803
