         224
 CSIRO Nanostructure Databank - Neutral Graphene Oxide Data Set
C        -11.06073         0.73707        -0.47045
C         -9.90764         1.55671        -0.11284
C         -8.69625         0.78361         0.26690
C         -7.38467         1.52509         0.36805
C         -6.13980         0.79570         0.28470
C         -4.88260         1.51706        -0.07204
C         -3.63606         0.77429         0.36238
C         -2.43721         1.45084         0.40654
C         -1.18686         0.71160         0.58481
C          0.12194         1.46255         0.35727
C          1.28870         0.66650        -0.06759
C          2.52029         1.45297        -0.25915
C          3.78873         0.69196        -0.44020
C          4.98612         1.36347        -1.02091
C          6.28372         0.64266        -0.82294
C          7.48577         1.46229        -0.56662
C          8.65827         0.72361        -0.05775
C          9.93616         1.50407         0.28209
C         11.18757         0.72043         0.37683
C         -9.88635         2.92414        -0.07089
C         -8.67154         3.69280         0.44701
C         -7.38593         2.98616        -0.02246
C         -6.11740         3.70155         0.39692
C         -4.87977         2.97344         0.35819
C         -3.67255         3.61339         0.51382
C         -2.41343         2.91214         0.07275
C         -1.10546         3.62916         0.30870
C          0.09277         2.91366         0.11908
C          1.29528         3.61068        -0.23568
C          2.45407         2.89149        -0.56884
C          3.65168         3.60992        -1.01599
C          4.97811         2.85801        -1.18220
C          6.23615         3.60468        -0.90302
C          7.43670         2.84789        -0.53456
C          8.65981         3.59460        -0.23302
C          9.87823         2.92315         0.02197
C         -8.57596         5.16709         0.10758
C         -7.37200         5.83304         0.23749
C         -6.12055         5.09650         0.44745
C         -4.88816         5.81613         0.61704
C         -3.64817         5.04890         0.82395
C         -2.30621         5.78535         0.70248
C         -1.09060         5.03546         0.32521
C          0.11750         5.75243         0.07125
C          1.30399         5.04689        -0.25072
C          2.53063         5.76263        -0.53069
C          3.69896         5.06864        -0.89329
C          4.97744         5.72992        -1.40919
C          6.21930         4.98513        -0.92027
C          7.42605         5.72870        -0.58767
C          8.61290         4.99900        -0.26324
C         -7.27964         7.27040         0.17690
C         -6.07423         7.94478         0.31778
C         -4.83554         7.21270         0.51257
C         -3.57408         7.92142         0.48163
C         -2.34317         7.23058         0.46394
C         -1.10933         7.91283         0.26512
C          0.11201         7.18853         0.10668
C          1.33980         7.88885        -0.08111
C          2.51818         7.18854        -0.40673
C          3.74721         7.95184        -0.69714
C          4.98866         7.25356        -1.16556
C          6.33760         7.98159        -1.09638
C          7.45102         7.11386        -0.58072
C         -6.00697         9.38625         0.25354
C         -4.81637        10.05330         0.28924
C         -3.55713         9.35186         0.35330
C         -2.33354        10.03506         0.28650
C         -1.09831         9.34523         0.23807
C          0.16006        10.02322         0.19858
C          1.35804         9.33091         0.06457
C          2.64543         9.99102         0.13216
C          3.81142         9.33161        -0.15840
C          5.12329         9.92920         0.00389
C          6.26524         9.29503        -0.34034
C        -11.04288        -0.62952        -0.51568
C         -9.84134        -1.43505        -0.34060
C         -8.59714        -0.65456        -0.14752
C         -7.31395        -1.37717         0.13039
C         -6.16116        -0.60720         0.69035
C         -4.86090        -1.36813         0.91943
C         -3.64290        -0.64568         0.54755
C         -2.43365        -1.35426         0.29379
C         -1.20523        -0.72346         0.30853
C          0.08474        -1.51311         0.37448
C          1.29225        -0.71109        -0.10289
C          2.52303        -1.45864        -0.30925
C          3.74566        -0.78404        -0.44838
C          5.02078        -1.42902        -0.30414
C          6.21184        -0.72814        -0.27430
C          7.47238        -1.38179         0.13990
C          8.78994        -0.78187        -0.40127
C          9.98820        -1.45170         0.27725
C         11.18371        -0.63319         0.46033
C         -9.79929        -2.80623        -0.37946
C         -8.55354        -3.60209        -0.23579
C         -7.26557        -2.87747         0.06802
C         -6.25557        -3.62786         0.94400
C         -4.83623        -2.89384         1.11920
C         -3.75438        -3.54919         0.29621
C         -2.51421        -2.78003        -0.04673
C         -1.26279        -3.50229        -0.37216
C         -0.01208        -2.91386        -0.23367
C          1.26380        -3.61487        -0.35666
C          2.46480        -2.90413        -0.29109
C          3.74519        -3.65195        -0.23296
C          5.02694        -2.90038        -0.14922
C          6.18565        -3.54631         0.53669
C          7.49618        -2.82697         0.47400
C          8.74906        -3.61468         0.10988
C          9.96709        -2.79494         0.50766
C         -8.57016        -5.06474         0.01607
C         -7.40275        -5.77173         0.20806
C         -6.12601        -5.07610         0.44755
C         -4.94488        -5.75135         0.41146
C         -3.60378        -5.04424         0.50907
C         -2.62794        -5.59256        -0.51089
C         -1.53808        -4.83110        -0.88330
C          0.35145        -5.91671        -0.84267
C          1.34265        -5.08130        -0.33941
C          2.51443        -5.74257         0.18148
C          3.73875        -5.05486         0.24768
C          4.91161        -5.76027         0.54414
C          6.17821        -5.01641         0.75125
C          7.48103        -5.73473         0.76387
C          8.66216        -5.06303         0.58098
C         -7.35988        -7.21384         0.02756
C         -6.18245        -7.91732         0.00411
C         -4.88457        -7.26727         0.42955
C         -3.70555        -7.83498        -0.33852
C         -2.75383        -6.98295        -0.84345
C         -0.87429        -8.11388        -0.78042
C          0.20864        -7.27583        -0.39017
C          1.19430        -7.73005         0.51070
C          2.47498        -7.12010         0.55471
C          3.66886        -7.86603         0.79392
C          4.89206        -7.16826         0.76434
C          6.17863        -7.85544         0.88913
C          7.38060        -7.17792         0.89783
C         -6.09834        -9.32622        -0.31238
C         -4.90561        -9.96805        -0.50881
C         -3.62750        -9.27519        -0.53258
C         -2.44553       -10.00908        -0.68398
C         -1.09336        -9.51413        -0.51545
C          0.00705       -10.38357        -0.29183
C          1.22485        -9.91004         0.32733
C          2.56822       -10.14403         0.18497
C          3.60740        -9.38339         1.04734
C          4.97568       -10.00807         0.89796
C          6.13067        -9.31124         0.89621
O         -4.68187        -7.64848         1.82654
H         -5.32844        -7.14754         2.36734
O         -8.74117         3.67762         1.89608
H         -8.69945         2.73302         2.18775
O          6.70726         8.33902        -2.46061
H          5.86514         8.56464        -2.91884
O         -6.83327        -3.71809         2.21366
O         -7.38560         3.00232        -1.47438
H         -6.58626         2.50235        -1.77827
O         -7.48829        -3.34113        -1.27076
O         -8.17043         1.10249         1.58746
O         -0.57854        -5.38933        -1.74905
O         -5.62539        -0.78308         2.03044
O         -1.76932        -7.56236        -1.69495
O         -4.86935         1.56363        -1.54754
H         -4.01722         2.00598        -1.80531
O          8.76055        -3.70012        -1.34568
H          8.84455        -2.76263        -1.70480
O         -0.33234         1.11059         1.72834
O          4.98900         5.57171        -2.85021
H          4.36518         6.24166        -3.21156
O         -4.47702        -3.10866         2.49563
H         -5.36996        -3.28527         2.93495
O          3.48619         1.24887         0.89227
O         -3.01645        -5.24739         1.81538
H         -3.48489        -4.62192         2.43037
O          8.82181        -1.02506        -1.75867
O          0.32940        -1.71869         1.80372
H          0.30665        -0.82710         2.22615
O          5.62275         0.72135        -2.14797
O          5.94775        -4.06480         1.88003
O          4.12354         7.90634        -2.16021
O          3.24322        -9.57756         2.43882
H          2.32520        -9.23889         2.55200
O          0.93215        -8.86135         1.26678
O         -3.59973        -3.05999        -1.04708
O          7.59368        -1.81138         1.52673
O         -7.59836        -0.82436        -1.20366
O          4.20399         3.18895        -2.35505
O          4.63269        -3.53166        -1.42047
O         -2.86078         5.39885         2.01386
O          8.93663         1.06208         1.30489
O         -2.49581         2.93535        -1.43025
H         -2.38091         3.86655        -1.72148
H         12.13803        -1.15915         0.62279
H         12.13392         1.27665         0.45136
H         10.81706         3.49628        -0.02885
H          9.52394         5.56843        -0.02436
H          8.39425         7.61989        -0.32213
H          7.22774         9.80612        -0.18451
H          5.17127        10.93026         0.46013
H          2.67893        11.04111         0.46061
H          0.17353        11.12074         0.27644
H         -2.33450        11.13446         0.23921
H         -4.79838        11.15140         0.22789
H         -6.94903         9.94669         0.16142
H         -8.20494         7.84902         0.03316
H         -9.50206         5.74539        -0.03805
H        -10.80036         3.48592        -0.32223
H        -12.00706         1.26120        -0.67275
H        -11.97824        -1.16190        -0.74642
H        -10.74401        -3.36327        -0.48892
H         -9.51360        -5.60941        -0.14924
H         -8.30234        -7.72869        -0.22171
H         -7.03724        -9.89548        -0.39923
H         -4.90523       -11.04901        -0.71683
H         -2.55416       -11.10579        -0.72199
H         -0.10925       -11.45362        -0.52459
H          2.92220       -10.93478        -0.49341
H          5.01214       -11.10821         0.89511
H          7.09008        -9.85047         0.86202
H          8.31521        -7.75853         0.94647
H          9.59918        -5.64371         0.57596
H         10.85807        -3.30410         0.90999
