         630
 CSIRO Nanostructure Databank - Neutral Graphene Oxide Data Set
C         22.91930        27.52570         1.06301
C         22.95036        28.88362         1.29078
C         22.99697        31.77055         1.73244
C         23.00801        33.12478         1.96684
C         23.05433        36.02110         2.23058
C         23.07127        37.40859         2.14479
C         23.04643        40.24381         1.51697
C         23.02198        41.55664         1.09978
C         22.97125        44.29971         0.08670
C         22.95653        45.66406        -0.29289
C         25.27431        24.69437         0.28082
C         24.10864        25.40701         0.53197
C         25.32840        27.54249         0.66562
C         24.11222        26.81702         0.74858
C         25.37996        28.92555         0.96079
C         24.16865        29.62204         1.26269
C         25.44093        31.74069         1.61319
C         24.19972        31.03656         1.53526
C         25.45172        33.13452         1.89188
C         24.22904        33.85366         2.05687
C         25.51808        36.00957         2.56821
C         24.23727        35.26988         2.25434
C         25.52406        37.44203         2.04244
C         24.28083        38.12548         1.93910
C         25.47803        40.18794         1.24241
C         24.26162        39.51827         1.57188
C         25.45290        41.54560         0.79663
C         24.20575        42.22235         0.69952
C         25.38507        44.12459        -0.39455
C         24.14437        43.56132         0.15757
C         25.36002        45.58567        -0.84384
C         24.11183        46.33699        -0.64623
C         25.26141        48.41635        -1.19557
C         24.12700        47.76441        -0.84580
C         27.79216        23.33311        -0.59328
C         27.74928        24.63102        -0.07977
C         26.52877        25.33165         0.18667
C         27.84645        27.54578         0.39465
C         26.54135        26.81066         0.26646
C         27.86663        28.94593         0.85653
C         26.64482        29.63525         1.03439
C         27.92775        31.66004         1.55014
C         26.67757        31.01496         1.39292
C         27.95298        33.05879         2.01181
C         26.70668        33.85881         1.99987
C         28.04499        35.94409         2.28956
C         26.75755        35.21800         2.21266
C         28.02215        37.47787         2.06694
C         26.72363        38.13858         1.81522
C         27.95312        40.18961         1.10958
C         26.72239        39.49453         1.37033
C         27.94133        41.56141         0.70089
C         26.69415        42.22585         0.49688
C         27.88854        44.26979        -0.23406
C         26.68628        43.54029        -0.02931
C         27.85351        45.66775        -0.66139
C         26.64325        46.30607        -0.90932
C         27.84902        48.50799        -1.35438
C         26.55634        47.71835        -1.32538
C         27.82192        49.98256        -1.20522
C         30.25325        23.29341        -0.64908
C         29.01601        22.68039        -0.84254
C         30.32363        24.63359        -0.14021
C         29.04623        25.26405         0.27986
C         30.35239        27.46428         0.57194
C         29.07926        26.73671         0.60040
C         30.35748        28.85488         0.81527
C         29.11804        29.58513         1.01962
C         30.42062        31.67196         1.35054
C         29.15067        30.97122         1.34655
C         30.47952        33.06866         1.53369
C         29.28808        33.79280         1.98806
C         30.46400        35.95282         1.65042
C         29.28976        35.25753         1.94421
C         30.45973        37.39561         1.54637
C         29.25531        38.12734         1.61081
C         30.40902        40.24373         1.05611
C         29.20298        39.51632         1.23611
C         30.41459        41.60751         0.68777
C         29.16320        42.27251         0.46733
C         30.37405        44.36930        -0.10982
C         29.13586        43.63963         0.04371
C         30.34803        45.76558        -0.43866
C         29.10313        46.42034        -0.70792
C         30.30955        48.54919        -1.02569
C         29.10087        47.80501        -0.98926
C         30.24676        49.97161        -1.45949
C         28.96329        50.68152        -1.26062
C         32.76765        20.44376        -0.95000
C         31.58528        21.09586        -0.84160
C         32.80816        23.31787        -0.94642
C         31.51075        22.56470        -0.97724
C         32.79940        24.82638        -0.69865
C         31.52301        25.34606        -0.04042
C         32.78423        27.41233         0.55574
C         31.54890        26.73099         0.37444
C         32.82310        28.80039         0.79478
C         31.60348        29.54151         0.89123
C         32.86968        31.65826         1.04062
C         31.62998        30.95526         1.09501
C         32.89303        33.08052         1.10856
C         31.68494        33.79813         1.34734
C         32.90403        35.93945         1.17940
C         31.69372        35.23240         1.40234
C         32.90630        37.38362         1.16526
C         31.70044        38.07646         1.32628
C         32.96402        40.29352         1.12473
C         31.67234        39.55006         1.35224
C         32.90543        41.68314         0.62554
C         31.66128        42.32106         0.47438
C         32.84362        44.43435        -0.06737
C         31.61645        43.70763         0.08121
C         32.80364        45.83076        -0.27134
C         31.57157        46.51369        -0.47514
C         32.77011        48.71038        -0.85007
C         31.54586        47.92435        -0.77637
C         32.76347        50.04306        -1.18858
C         31.53585        50.75250        -1.58821
C         32.66330        52.95360        -1.29766
C         31.55950        52.23641        -1.57576
C         35.30477        19.01889        -1.41656
C         35.24874        20.39019        -1.00964
C         34.05622        21.11504        -0.96757
C         35.26709        23.24520        -0.61632
C         34.08116        22.56129        -0.79113
C         35.27004        24.63946        -0.20552
C         34.06175        25.29998        -0.01829
C         35.34967        27.34243         0.82164
C         34.01830        26.60969         0.61691
C         35.31521        28.80838         0.83957
C         34.08638        29.50584         0.87863
C         35.33209        31.63735         0.82824
C         34.09505        30.92971         0.91689
C         35.33560        33.06841         0.77300
C         34.12299        33.79487         0.94268
C         35.34629        35.93361         0.72632
C         34.12028        35.22207         0.96344
C         35.37696        37.35632         0.74798
C         34.15817        38.10513         0.96392
C         35.45757        40.27870         1.00639
C         34.18026        39.49639         0.91361
C         35.38207        41.66959         0.40391
C         34.14161        42.35642         0.33345
C         35.33914        44.45586        -0.17274
C         34.11527        43.75495         0.02354
C         35.35003        45.88182        -0.29518
C         34.06623        46.58756        -0.16479
C         35.33084        48.70959        -0.80147
C         34.05383        48.07962        -0.45101
C         35.32577        50.13137        -1.16944
C         34.01822        50.83021        -1.29168
C         35.27216        53.04263        -0.86818
C         33.95502        52.29776        -0.97736
C         35.33346        54.50018        -1.04536
C         37.76300        19.07475        -1.60006
C         36.48619        18.39639        -1.71256
C         37.79042        20.35380        -1.07895
C         36.54175        21.04426        -0.55619
C         37.80771        23.26729        -0.48383
C         36.56487        22.53322        -0.94043
C         37.77742        24.61823        -0.25533
C         36.53401        25.32348         0.01174
C         37.81517        27.40975         0.53324
C         36.58108        26.66457         0.39660
C         37.78852        28.76622         0.84334
C         36.55000        29.50167         0.83642
C         37.81679        31.62647         0.72828
C         36.55478        30.91872         0.79492
C         37.80480        33.05311         0.48494
C         36.55744        33.76957         0.51430
C         37.69851        35.89550        -0.06008
C         36.52017        35.18192         0.41425
C         37.76263        37.33793         0.15053
C         36.62582        38.05640         0.54946
C         37.83862        40.20428         0.31974
C         36.67563        39.50104         0.59657
C         37.83680        41.63112         0.10129
C         36.59200        42.34125         0.10195
C         37.80113        44.44631        -0.40360
C         36.58554        43.75092        -0.18042
C         37.80001        45.88303        -0.55826
C         36.54884        46.59477        -0.46556
C         37.78744        48.74442        -0.87901
C         36.54157        48.03026        -0.68187
C         37.79095        50.16861        -0.98774
C         36.57044        50.90537        -0.98685
C         37.78513        53.03087        -1.10629
C         36.55397        52.30006        -1.01240
C         37.78915        54.45581        -1.10569
C         36.52714        55.14679        -1.13465
C         40.23784        16.42812        -2.74341
C         39.03490        17.07960        -2.43371
C         40.21857        19.17996        -2.01993
C         39.00379        18.43551        -2.03315
C         40.29807        20.45357        -1.42787
C         39.07598        21.02159        -0.84295
C         40.35053        23.24410        -0.71269
C         39.09374        22.53205        -0.52808
C         40.33419        24.71684        -0.64634
C         39.02391        25.42120        -0.33220
C         40.30151        27.41768         0.42306
C         39.07883        26.76045         0.26590
C         40.34061        28.80308         0.86631
C         39.03927        29.48284         1.27365
C         40.25980        31.70158         1.08217
C         39.00992        30.94888         0.92006
C         40.28046        33.09417         0.61893
C         39.03856        33.72133         0.32058
C         40.31987        35.83553        -0.12035
C         39.05630        35.10370        -0.14314
C         40.25605        37.28524        -0.54518
C         39.08140        37.97908         0.13850
C         40.33394        40.19170        -0.17037
C         39.11453        39.48490         0.24323
C         40.29938        41.60580        -0.25350
C         39.05090        42.31605        -0.17009
C         40.26719        44.41298        -0.64243
C         39.04634        43.73078        -0.41252
C         40.25285        45.83133        -1.14109
C         38.99572        46.58238        -0.78448
C         40.25784        48.68403        -1.07742
C         39.01812        48.00976        -0.90853
C         40.25736        50.13131        -1.32202
C         39.00700        50.90331        -1.14835
C         40.29614        53.04447        -1.51044
C         39.00736        52.29568        -1.21728
C         40.26613        54.49645        -1.10271
C         39.03785        55.18709        -1.02934
C         40.26239        57.28422        -0.76099
C         39.06963        56.60212        -0.82994
C         42.68934        16.48191        -3.05873
C         41.44674        17.12158        -2.79189
C         42.73402        19.23148        -2.29436
C         41.42395        18.62497        -2.72895
C         42.75023        20.56042        -1.79325
C         41.52313        21.18427        -1.37210
C         42.81418        23.27453        -0.92417
C         41.55255        22.55566        -0.94369
C         42.86894        24.62477        -0.23263
C         41.57020        25.40188        -0.26602
C         42.82025        27.33196         0.57752
C         41.54113        26.71145         0.15370
C         42.81499        28.74779         1.11002
C         41.52942        29.47608         1.05065
C         42.83075        31.68281         0.91805
C         41.57594        30.95331         1.22726
C         42.75594        33.06467         0.66122
C         41.51175        33.76553         0.48185
C         42.76907        35.88629        -0.05013
C         41.50588        35.18134         0.15197
C         42.73993        37.32799        -0.26888
C         41.54785        38.02795        -0.31742
C         42.77430        40.18598        -0.33278
C         41.53511        39.46787        -0.30058
C         42.75976        41.61649        -0.36578
C         41.52161        42.31936        -0.39788
C         42.74870        44.46165        -0.58665
C         41.50389        43.74066        -0.55107
C         42.74471        45.89591        -0.68736
C         41.52676        46.59357        -0.85702
C         42.76160        48.73362        -0.88815
C         41.51377        48.00442        -0.96190
C         42.79909        50.14959        -0.95278
C         41.55716        50.87801        -1.25619
C         42.79212        53.05074        -0.99427
C         41.47668        52.32826        -0.83232
C         42.76671        54.47025        -1.01393
C         41.50117        55.17665        -0.98903
C         42.74319        57.29115        -0.81454
C         41.50464        56.59589        -0.84647
C         43.87910        17.17037        -2.99808
C         45.18700        19.22834        -2.38043
C         43.93708        18.54858        -2.56605
C         45.18995        20.60498        -2.06536
C         43.97962        21.27733        -1.73891
C         45.25304        23.48064        -1.57506
C         43.98495        22.66526        -1.33372
C         45.29773        24.78858        -0.84685
C         44.00197        25.53447        -0.77084
C         45.30116        27.41019         0.34013
C         44.07371        26.77098         0.08127
C         45.33641        28.78148         0.77135
C         44.12359        29.51366         1.31242
C         45.30142        31.62960         0.71101
C         44.08159        30.97444         0.89771
C         45.33270        33.09927         0.61396
C         44.00538        33.84296         0.57620
C         45.21653        35.84279        -0.51671
C         43.96208        35.21237         0.02766
C         45.19530        37.34134        -0.37238
C         44.00238        38.03971        -0.28840
C         45.22968        40.20852        -0.23996
C         43.99742        39.48382        -0.30535
C         45.21761        41.64031        -0.24020
C         43.98455        42.33898        -0.35105
C         45.21216        44.48386        -0.37182
C         43.97154        43.76891        -0.43515
C         45.21308        45.90509        -0.45578
C         43.98070        46.61074        -0.61044
C         45.22501        48.75356        -0.65031
C         43.98817        48.03129        -0.70738
C         45.23921        50.17534        -0.73491
C         44.00110        50.88096        -0.85102
C         45.24778        53.04430        -0.92908
C         43.99698        52.33275        -0.92245
C         45.24245        54.47103        -1.00778
C         43.99009        55.19562        -0.99526
C         43.94203        56.61610        -0.91291
C         47.64088        19.09088        -2.19533
C         46.43863        18.49900        -2.39995
C         47.76826        20.55435        -2.13817
C         46.47228        21.34164        -2.04619
C         47.73512        23.29107        -1.10590
C         46.52278        22.68981        -1.45852
C         47.75493        24.63719        -0.60302
C         46.50502        25.36612        -0.44742
C         47.77821        27.26394         0.65567
C         46.51615        26.69572         0.08418
C         47.77983        28.76911         0.64789
C         46.58128        29.48272         0.76613
C         47.76962        31.66989         0.60239
C         46.57382        30.94389         0.73256
C         47.78233        33.07201         0.25837
C         46.56848        33.76589         0.15910
C         47.70803        35.85878        -0.30103
C         46.52954        35.18049        -0.12435
C         47.74157        37.33197        -0.43783
C         46.45079        38.07727        -0.46701
C         47.69003        40.20941        -0.03531
C         46.45578        39.51831        -0.19457
C         47.67535        41.64284        -0.01875
C         46.44765        42.34958        -0.16066
C         47.66789        44.49211        -0.12721
C         46.43922        43.77976        -0.21485
C         47.67098        45.91365        -0.23583
C         46.44642        46.61899        -0.40571
C         47.68835        48.75818        -0.47664
C         46.45563        48.04485        -0.51586
C         47.68730        50.17718        -0.56009
C         46.48296        50.88456        -0.70693
C         47.71157        53.03881        -0.93416
C         46.48324        52.33539        -0.84151
C         47.68125        54.44709        -1.07224
C         46.48706        55.14364        -1.08131
C         50.21880        20.48719        -1.64436
C         49.00488        21.19870        -1.63037
C         50.22145        23.18536        -0.86674
C         48.98876        22.54667        -1.20333
C         50.23617        24.57477        -0.50418
C         49.00029        25.28507        -0.32692
C         50.25987        27.33561         0.17718
C         49.03287        26.63680         0.10615
C         50.29660        28.74502         0.44691
C         49.06246        29.44592         0.80019
C         50.31424        31.65960         0.34486
C         49.07035        30.99969         0.77433
C         50.25334        33.05598         0.01792
C         49.04446        33.73702        -0.01543
C         50.23854        35.97793        -0.50359
C         48.97244        35.11512        -0.65812
C         50.21192        37.35791        -0.00116
C         48.89124        38.01419         0.28008
C         50.13349        40.20286         0.30417
C         48.91642        39.50923         0.11226
C         50.11730        41.63815         0.33279
C         48.89855        42.35016         0.13711
C         50.11528        44.48934         0.15679
C         48.89203        43.78076         0.07355
C         50.13785        45.90187        -0.05284
C         48.90928        46.62882        -0.22174
C         50.18163        48.72705        -0.51492
C         48.92589        48.03408        -0.37027
C         50.21418        50.11875        -0.66792
C         48.97952        50.92302        -0.32542
C         50.17510        52.88692        -1.26818
C         48.97701        52.31618        -0.90347
C         51.41077        21.09615        -1.28308
C         52.70144        23.11079        -0.58124
C         51.44565        22.45481        -0.91019
C         52.71472        24.50814        -0.31705
C         51.47479        25.23551        -0.28019
C         52.73181        27.32320         0.15115
C         51.48925        26.63208        -0.00834
C         52.73448        28.74509         0.26617
C         51.50102        29.46587         0.36515
C         52.77863        31.56355         0.06259
C         51.51090        30.91143         0.27605
C         52.79627        33.00341        -0.25962
C         51.48219        33.69815        -0.60390
C         52.69868        35.94615         0.18701
C         51.56994        35.23549        -0.44505
C         52.64004        37.31613         0.36594
C         51.39420        38.05022         0.22783
C         52.56916        40.21593         0.71701
C         51.37600        39.49164         0.44878
C         52.51714        41.63774         0.84487
C         51.32477        42.35191         0.59196
C         52.53415        44.50742         0.51405
C         51.32786        43.79151         0.46536
C         52.59358        45.86298         0.07803
C         51.37500        46.57493        -0.14912
C         52.65055        48.59265        -0.68553
C         51.41799        47.97133        -0.47270
C         52.68121        49.97596        -1.29194
C         51.43084        50.79184        -1.00175
C         51.39795        52.15054        -1.27089
C         55.10568        23.04410        -0.16643
C         53.91692        22.40252        -0.50741
C         55.14998        24.42484         0.06057
C         53.94785        25.17110        -0.02934
C         55.18573        27.30160         0.35764
C         53.95466        26.60027         0.16785
C         55.17151        28.71872         0.45532
C         53.97163        29.44422         0.36063
C         55.24247        31.60785         0.43142
C         53.97940        30.88944         0.28595
C         55.25159        33.03030         0.49398
C         54.03133        33.77323         0.10086
C         55.20366        35.93451         0.43355
C         53.89865        35.16431         0.68064
C         55.11649        37.34715         0.98458
C         53.81548        38.06602         0.89863
C         55.02429        40.24858         1.21127
C         53.83000        39.54976         0.91441
C         55.01630        41.68472         1.37867
C         53.71449        42.35226         1.28772
C         55.03614        44.53367         0.93061
C         53.73251        43.89317         1.08095
C         55.06903        45.81420         0.28047
C         53.84474        46.49656        -0.08748
C         55.11318        48.51791        -0.72944
C         53.87760        47.86640        -0.52632
C         55.13254        49.94213        -0.86011
C         53.98624        50.66993        -1.00951
C         57.70472        24.45106         0.08022
C         56.42251        25.08607         0.56077
C         57.65373        27.27024         0.28999
C         56.42966        26.58435         0.37762
C         57.65785        28.74759         0.26106
C         56.44155        29.42272         0.84468
C         57.67696        31.60667         0.80057
C         56.44502        30.91051         0.61884
C         57.65778        33.02436         0.97953
C         56.43123        33.73469         0.79855
C         57.53667        35.85466         1.38308
C         56.41981        35.17829         0.94260
C         57.40406        37.29015         1.86641
C         56.42981        38.10560         0.99387
C         57.38911        40.23703         1.88168
C         56.28507        39.55507         1.40852
C         57.34440        41.67191         2.10194
C         56.16659        42.44178         1.69977
C         57.38766        44.72879         1.48073
C         56.19498        43.89360         1.43688
C         57.45255        45.95013         0.72313
C         56.30051        46.45506         0.06602
C         57.64653        48.42213        -0.75951
C         56.35500        47.65957        -0.85232
C         58.85909        25.15631        -0.02358
C         60.12336        27.31015         0.21848
C         58.88665        26.58809         0.14861
C         60.18452        28.66591         0.39496
C         58.96965        29.49225         0.34466
C         60.08763        31.61713         1.12379
C         58.93071        30.90886         0.80993
C         60.05021        32.99322         1.40118
C         58.86068        33.72649         1.30194
C         59.93016        35.91588         1.84840
C         58.80532        35.16836         1.54365
C         59.87518        37.33115         2.07206
C         58.70481        38.02947         2.04563
C         59.83407        40.25430         2.53584
C         58.55815        39.46341         2.51284
C         59.73449        41.57519         2.80371
C         58.45316        42.22788         2.74201
C         59.64588        45.26921         2.35738
C         58.49213        44.49061         2.33882
C         59.74206        46.38010         1.50950
C         58.65241        46.73964         0.71846
C         58.70333        47.96395        -0.06228
O         28.13662        36.88900         3.41492
O         54.33277        37.49748         2.19885
O         58.40394        43.49344         3.31799
O         40.88801        31.46620         2.42351
O         32.40819        40.14292         2.49579
O         34.03607        47.57284         0.93567
O         27.23400        27.39555        -0.92745
O         39.38661        38.61310         1.41547
O         49.18362        30.25607         2.02246
O         32.15334        23.02318        -2.23892
O         39.20995        21.50412         0.55179
O         29.01390        25.74783         1.68250
O         44.79636        33.77394         1.82230
O         39.57147        25.38414        -1.71357
O         30.86549        50.19523        -2.77446
O         58.21113        29.34243        -0.93478
O         38.23233        35.38025        -1.33494
O         53.48716        43.28819         2.38683
O         53.75198        33.46972        -1.29741
O         28.72645        33.24856         3.24415
O         42.79212        27.61199         2.04163
O         34.49377        52.62541         0.34132
O         47.22020        21.23749        -3.32582
O         47.30242        37.81052        -1.73282
O         51.12540        35.89109        -1.66880
O         34.66372        26.68003         1.93405
O         25.27113        44.48880        -1.81256
O         41.00243        50.52251        -2.56934
O         27.24643        48.02027        -2.59851
O         34.73992        50.46712        -2.52158
O         56.98501        38.10370        -0.35383
H         56.59475        38.85255        -0.85164
O         49.03657        51.11875         1.14586
H         49.85382        51.62764         1.33481
O         40.20937        45.70686        -2.62192
H         40.22832        46.61774        -2.98772
O         58.15937        39.37388         3.92584
H         57.37371        38.77059         3.95348
O         36.67072        22.55061        -2.40038
H         36.61584        23.48253        -2.70099
O         48.59024        37.75442         1.70166
H         49.26761        38.21537         2.24137
O         55.35123        36.02828        -1.00114
H         56.17993        36.53360        -1.17664
O         44.33730        29.55795         2.76084
H         43.99302        28.70772         3.12079
O         51.28070        33.43892        -2.02392
H         52.12876        33.67032        -2.46942
O         45.16136        23.83630        -3.02644
H         45.49203        23.06676        -3.54229
O         43.63005        25.95706        -2.11882
H         44.04180        25.32389        -2.75622
O         47.77414        26.87664         2.09491
H         47.04383        27.37080         2.52667
O         35.62073        40.51407         2.45968
H         34.73426        40.72108         2.83019
O         56.57707        29.23693         2.29990
H         55.75998        29.57686         2.72275
O         52.65271        49.76495        -2.75644
H         53.42447        49.20008        -2.97795
O         40.00277        37.33313        -1.97830
H         39.30871        36.65410        -2.16976
O         40.49269        53.07649        -2.94398
H         40.58863        52.13823        -3.24598
O         56.39947        24.86239         2.02619
H         57.15399        25.36133         2.40620
O         41.17741        52.32325         0.59581
H         41.99197        52.07396         1.08067
O         53.73668        34.92508         2.09882
H         53.82102        35.80538         2.54925
O         56.78024        37.19193         3.18832
H         57.28742        36.53243         3.70730
O         45.17067        35.59235        -1.97222
H         45.93187        36.07950        -2.36600
O         25.55090        36.13431         4.03492
H         26.44448        36.49373         4.25929
O         41.26892        19.06086        -4.14741
H         42.01879        18.67070        -4.64632
O         39.03470        29.42337         2.74259
H         39.73675        30.05061         3.04885
O         36.55211        20.92741         0.89035
H         37.48022        21.10364         1.18529
O         43.21054        24.35923         1.15496
H         42.50085        23.81208         1.55170
O         48.81692        34.83310        -2.07934
H         49.69321        34.48334        -2.38762
O         56.30312        47.11865        -2.23028
H         57.10940        46.57465        -2.35654
O         32.82750        25.48240        -2.00666
H         32.39842        24.85006        -2.63344
H         21.96793        26.97772         1.11894
H         22.00673        29.39248         1.52654
H         22.02660        31.26038         1.68229
H         22.04820        33.63801         2.10756
H         22.07686        35.52068         2.19743
H         22.10769        37.93179         2.11003
H         22.09975        39.76875         1.80251
H         22.05690        42.07719         1.05705
H         22.02320        43.86295         0.42719
H         22.01262        46.22285        -0.21562
H         25.21575        23.60116         0.17988
H         23.15265        24.86899         0.60508
H         25.21911        49.48643        -1.43840
H         23.17758        48.31232        -0.75462
H         26.85873        22.81036        -0.84404
H         26.86000        50.50204        -1.09665
H         28.98336        21.66147        -1.25312
H         28.95203        51.77862        -1.19563
H         32.76099        19.34594        -0.89412
H         30.65698        20.52532        -0.69563
H         32.61137        54.05202        -1.28731
H         30.63219        52.76004        -1.84976
H         34.36814        18.47276        -1.60023
H         34.39744        55.07557        -1.04413
H         36.45591        17.36463        -2.08620
H         36.52020        56.24069        -1.23523
H         40.23030        15.34262        -2.92399
H         38.11343        16.48335        -2.42537
H         40.26602        58.37673        -0.63541
H         38.13197        57.16701        -0.74298
H         42.69244        15.40687        -3.29428
H         42.73692        58.38676        -0.71949
H         44.80953        16.63762        -3.23320
H         44.87481        57.19539        -0.89254
H         48.53571        18.46456        -2.07489
H         46.40361        17.40341        -2.47073
H         48.62217        55.01004        -1.13899
H         46.51881        56.23808        -1.16277
H         50.23875        19.44079        -1.97667
H         50.21077        53.92766        -1.62073
H         52.33545        20.50664        -1.32840
H         52.31101        52.67597        -1.58208
H         56.01596        22.43727        -0.07080
H         53.94221        21.31912        -0.68359
H         56.09658        50.46900        -0.80120
H         54.05011        51.76380        -1.09833
H         57.73513        23.36028        -0.05218
H         57.74830        49.33349        -1.36627
H         59.79986        24.64250        -0.27360
H         61.05713        26.72802         0.19940
H         61.15917        29.14732         0.55993
H         61.05954        31.10464         1.14447
H         60.99219        33.49626         1.65875
H         60.91390        35.43351         1.92075
H         60.82812        37.83830         2.28088
H         60.81272        39.75696         2.51891
H         60.61944        42.19370         3.01148
H         60.45095        45.02639         3.06227
H         60.64646        47.00428         1.51392
H         59.64800        48.52914        -0.05391
