         324
 CSIRO Nanostructure Databank - Neutral Graphene Oxide Data Set
C          1.22114         1.88846         0.28910
C          1.14728         3.30928         0.29717
C          2.40234         1.20057         0.18019
C          2.29119         4.11255         0.28041
C          1.06812         6.31817         0.32126
C          1.04147         7.68549         0.16357
C          2.26378         5.54073         0.28777
C          2.21689         8.44119        -0.30493
C          1.02730        10.70456         0.10632
C          1.07481        12.05100         0.26247
C          2.20882         9.97567        -0.48509
C          2.29632        12.79977         0.05796
C          1.13604        14.99458        -0.08004
C          1.13299        16.40272        -0.12946
C          2.31746        14.23206         0.04663
C          2.30306        17.13693         0.02804
C          2.36232        18.58183         0.02126
C          3.66282         1.91194        -0.04105
C          3.59968         3.42942         0.07082
C          4.96629         1.23475         0.07130
C          4.87083         4.11992         0.46643
C          3.53056         6.30915         0.33544
C          3.53523         7.69981        -0.21615
C          4.86170         5.61599         0.43762
C          4.81624         8.43331        -0.13461
C          3.50139        10.66290        -0.05150
C          3.51972        12.05221         0.01151
C          4.74296         9.88575         0.14838
C          4.83095        12.79983        -0.17417
C          3.58395        14.93709         0.16488
C          3.54963        16.40618         0.30432
C          4.79888        14.27735         0.13923
C          4.84984        17.16236         0.17863
C          3.53227        19.26515        -0.09993
C          4.81965        18.55055        -0.42617
C          6.16780         1.93538         0.02552
C          6.16689         3.40161         0.29059
C          7.42310         1.30325        -0.10110
C          7.39307         4.18895         0.01066
C          6.09917         6.32063         0.05181
C          6.02510         7.74906        -0.06097
C          7.32303         5.62849        -0.04898
C          7.30101         8.49594        -0.20633
C          6.01349        10.61809         0.43808
C          5.99834        12.12030         0.50396
C          7.29865         9.97798         0.01270
C          7.29972        12.84786         0.59280
C          6.06641        14.98343         0.14104
C          6.09953        16.39953         0.02481
C          7.30967        14.28814         0.21187
C          7.30253        17.11605        -0.10161
C          6.09474        19.28156        -0.11289
C          7.30137        18.58016        -0.06678
C          8.63054         2.04771        -0.25931
C          8.59061         3.51526        -0.21686
C          9.81177         1.39322        -0.56886
C          9.81772         4.25533        -0.38020
C          8.56586         6.36585        -0.18449
C          8.58084         7.77411        -0.13575
C          9.79166         5.65289        -0.30589
C          9.80819         8.52171        -0.00225
C          8.56870        10.68750         0.29294
C          8.55524        12.05074         0.56233
C          9.78845         9.93436         0.23771
C          9.82184        12.77122         0.63650
C          8.51521        14.98010         0.04916
C          8.54281        16.40880        -0.12912
C          9.79176        14.29613         0.31284
C          9.76557        17.13062        -0.12486
C          8.55005        19.25280         0.06016
C          9.78209        18.55600         0.02929
C         11.04456         2.11270        -1.02951
C         11.06975         3.55113        -0.57365
C         12.30052         1.36753        -0.67253
C         12.28139         4.20528        -0.42189
C         11.06644         6.41753        -0.57302
C         11.05368         7.85334        -0.08737
C         12.26008         5.66195         0.00366
C         12.27511         8.53332         0.20150
C         11.03445        10.62995         0.38389
C         11.04722        12.03610         0.40326
C         12.26531         9.90501         0.49488
C         12.33019        12.69691        -0.02112
C         11.03760        14.90112        -0.20450
C         11.03586        16.43145        -0.32189
C         12.32019        14.22413         0.06005
C         12.30301        17.12370        -0.07167
C         11.03208        19.22884         0.13242
C         12.27675        18.54224         0.12989
C         13.51741         2.03620        -0.53086
C         13.52680         3.49136        -0.49661
C         14.76334         1.35443        -0.43558
C         14.76090         4.16491        -0.50071
C         13.52595         6.41901        -0.33571
C         13.56334         7.83726         0.12259
C         14.78070         5.64456        -0.49652
C         14.75285         8.47822         0.34233
C         13.44688        10.60257         1.16699
C         13.47153        12.08348         0.76295
C         14.80179         9.85483         0.91695
C         14.46175        12.93273         1.08879
C         13.47877        14.95335         0.09709
C         13.51227        16.41008         0.04250
C         14.74228        14.14161         0.22446
C         14.76210        17.10141         0.14997
C         13.51190        19.20901         0.32174
C         14.76103        18.54914         0.27395
C         16.00527         2.03661        -0.53802
C         15.99662         3.48832        -0.62937
C         17.22894         1.34734        -0.48936
C         17.21993         4.22855        -0.77917
C         16.05907         6.28773        -0.09710
C         16.05612         7.72905         0.29218
C         17.28971         5.60938        -0.55030
C         17.31496         8.47183         0.02546
C         16.19860        10.50675         0.89403
C         16.38588        11.94914         1.11668
C         17.31281         9.83433         0.18323
C         17.29351        12.74973         0.49721
C         16.01211        14.89427         0.54033
C         15.97637        16.32430         0.30069
C         17.22163        14.20571         0.56032
C         17.20456        16.92202         0.01913
C         15.93904        19.35522         0.53123
C         17.22628        19.01047         0.09725
C         18.46763         1.98698        -0.92628
C         18.44201         3.50442        -1.16962
C         19.77961         1.37327        -0.64047
C         19.74156         4.25357        -1.18198
C         18.50975         6.36217        -0.61781
C         18.51126         7.77752        -0.41408
C         19.73690         5.68732        -0.85598
C         19.73094         8.50105        -0.56914
C         18.44616        10.62972        -0.33779
C         18.43995        12.13253        -0.20924
C         19.73648         9.94950        -0.53430
C         19.72916        12.84547        -0.18999
C         18.52668        14.89651         0.60090
C         18.49935        16.42778         0.42601
C         19.76664        14.22698         0.15639
C         19.72818        17.18468         0.11718
C         18.52224        19.41677         0.47121
C         19.70992        18.63287         0.20708
C         20.96041         2.03906        -0.67176
C         21.05311         3.48874        -0.98509
C         22.24381         1.27131        -0.42614
C         22.23371         4.25800        -0.53049
C         20.96554         6.37471        -0.74183
C         20.95910         7.79990        -0.68450
C         22.19770         5.64800        -0.53631
C         22.20673         8.53110        -0.71903
C         20.88480        10.70370        -0.75001
C         20.89702        12.14188        -0.54155
C         22.15004         9.97905        -1.05233
C         22.12092        12.88936        -0.62565
C         20.93759        14.99403        -0.04861
C         20.92829        16.45515         0.01212
C         22.14210        14.31076        -0.42571
C         22.17083        17.16257        -0.11211
C         20.95162        19.29074         0.19972
C         22.17387        18.59627         0.01384
C         23.41819         2.11757         0.01153
C         23.42149         3.53443        -0.12037
C         24.53325         1.47001         0.53581
C         24.61781         4.23642         0.16280
C         23.37186         6.44897        -0.10460
C         23.39777         7.88877        -0.45390
C         24.66225         5.71317         0.19072
C         24.66733         8.63701        -0.29405
C         23.42156        10.75524        -1.22090
C         23.29916        12.24709        -1.07835
C         24.71170        10.09680        -0.71836
C         24.36067        13.06316        -1.45849
C         23.36916        15.04310        -0.56316
C         23.38691        16.47343        -0.34203
C         24.52973        14.40220        -1.05214
C         24.61958        17.18168        -0.41028
C         23.39860        19.29061        -0.03660
C         24.62315        18.60933        -0.21511
C         25.70603         2.17884         0.88930
C         25.75897         3.56890         0.62470
C         26.82869         1.51234         1.49570
C         26.95893         4.36646         0.95770
C         25.97437         6.37592         0.01270
C         25.98296         7.83821        -0.14892
C         27.16652         5.69167         0.29507
C         27.27418         8.43689        -0.59794
C         26.10422        10.66221        -0.91262
C         26.30214        12.00086        -1.51251
C         27.31983         9.87799        -0.72749
C         27.30278        12.81812        -1.09083
C         25.86330        15.07862        -1.07769
C         25.86313        16.49477        -0.59713
C         27.20187        14.30583        -1.09105
C         27.06343        17.18332        -0.41440
C         25.85158        19.30866        -0.20070
C         27.07599        18.61248        -0.23570
C         27.99234         2.17630         1.79986
C         28.11692         3.63873         1.57308
C         29.14140         1.49437         2.34241
C         29.45958         4.20773         1.35627
C         28.48671         6.25553         0.19582
C         28.61694         7.60225        -0.43054
C         29.62486         5.43732         0.64279
C         29.85660         8.47819        -0.36261
C         28.59626        10.59750        -0.81061
C         28.59185        12.11435        -0.86305
C         29.82443         9.90066        -0.37190
C         29.76916        12.86576        -0.40516
C         28.37213        14.95813        -0.39312
C         28.31976        16.44176        -0.15913
C         29.69726        14.27259        -0.31614
C         29.59116        17.17858        -0.04721
C         28.31115        19.29096        -0.10159
C         29.55448        18.60509        -0.04220
C         30.35082         2.11444         2.38054
C         30.55926         3.41405         1.76919
C         31.87724         3.83521         1.51191
C         30.97048         5.67952         0.24115
C         31.13821         7.90926        -0.42929
C         32.07021         4.94388         0.69932
C         32.32041         8.64859        -0.30576
C         31.00600        10.68242        -0.21492
C         30.96425        12.15581        -0.15027
C         32.24867        10.02355        -0.13486
C         32.09689        12.91766         0.20993
C         30.85323        15.01759         0.01585
C         30.81877        16.48795         0.05540
C         32.04396        14.30345         0.27255
C         32.00745        17.24392         0.15491
C         30.77266        19.32534         0.06755
C         31.97770        18.64262         0.16166
O         25.33329         8.48199         0.99525
O          3.66755         2.81105        -1.24437
O          4.22200         6.21160         1.62825
O         15.46299        12.54548         1.99131
O         20.59114         3.89499        -2.31293
O         14.09833         6.23145        -1.66763
O         17.22283        17.97184        -0.88724
O         18.08589        11.50846        -1.48878
O         22.76753        10.22019        -2.39632
O         23.80679         6.21993         1.28616
O          7.24506         9.45005        -1.35450
O          5.57055         3.62305         1.64418
O         16.12627         6.67721         1.32810
O          4.24820        16.98270         1.48389
O         15.68122         9.82137         2.08857
O         28.88644        11.31323        -2.08721
O          9.92446        13.82329         1.68142
O         31.27644         6.56992        -0.78352
O         10.98292        15.52803        -1.50502
O          5.31761        10.04201         1.56836
O         27.90899         7.70231        -1.70450
O          2.83434         7.79333        -1.49923
O         26.69912        14.94522        -2.29318
O         27.21740         4.44951         2.40910
O         25.28828        12.48879        -2.32132
O         18.31047         2.58511        -2.27681
O         18.59981        15.79251         1.74696
O         28.05161        15.46556         0.94934
O         25.27143        10.90182         0.36358
O          6.42507        12.63180         1.78287
O         13.18837        10.50510         2.58103
H         14.06191        10.50582         3.03660
O         12.11615         5.69833         1.44474
H         12.85823         5.20370         1.85047
O         11.24413         6.45804        -2.01546
H         10.51585         6.98897        -2.40026
O         14.97398        13.55716        -1.11961
H         15.20816        14.29286        -1.72603
O          5.12771        12.68488        -1.60498
H          4.33086        12.95958        -2.10641
O          2.11817        10.21521        -1.92715
H          2.55164         9.44354        -2.36480
O         10.97707         2.13890        -2.51423
H         11.67169         2.75750        -2.82776
O         12.49165        12.37111        -1.43183
H         13.38672        12.70634        -1.69097
O         22.02757         0.19472         0.49229
H         21.89363         0.57273         1.38534
O          4.80525        18.31728        -1.88494
H          4.93177        19.18325        -2.32678
H          0.28533         1.32561         0.41760
H          0.15640         3.77372         0.39455
H          2.42394         0.10721         0.29384
H          0.11648         5.80527         0.52559
H          0.08989         8.21340         0.31394
H          0.07777        10.17465         0.26541
H          0.17331        12.58624         0.59470
H          0.17495        14.47477        -0.19543
H          0.18065        16.92674        -0.29698
H          1.41444        19.13505         0.11407
H          4.98116         0.13420         0.04894
H          3.52585        20.36627        -0.09933
H          7.46323         0.20849        -0.20552
H          6.09556        20.38054        -0.04741
H          9.81746         0.29229        -0.60333
H          8.55718        20.34944         0.15000
H         12.28552         0.26755        -0.70741
H         11.03413        20.32268         0.25212
H         14.76490         0.25476        -0.39606
H         13.49945        20.29687         0.48539
H         17.24708         0.28293        -0.21048
H         15.79458        20.29225         1.08917
H         19.79180         0.30976        -0.35122
H         18.65796        20.38299         0.97956
H         22.52843         0.79116        -1.40533
H         20.97981        20.38415         0.31600
H         24.49352         0.38179         0.69022
H         23.40499        20.38350         0.08685
H         26.75434         0.43155         1.68799
H         25.85122        20.40187        -0.08133
H         29.02448         0.46282         2.70457
H         28.30791        20.38799        -0.01947
H         31.23198         1.59045         2.77827
H         32.72820         3.23577         1.86282
H         33.07418         5.22747         0.35835
H         33.28817         8.13541        -0.36846
H         33.18044        10.59307        -0.03023
H         33.04804        12.42616         0.45271
H         32.95669        14.84303         0.55786
H         32.98082        16.74030         0.21859
H         30.75053        20.42414         0.07689
H         32.92010        19.20208         0.24143
