         470
 CSIRO Nanostructure Databank - Neutral Graphene Oxide Data Set
C         39.94493        49.73481        -5.62110
C         39.57254        50.10540        -6.91576
C         40.82463        52.15705        -6.68502
C         40.01523        51.31905        -7.44704
C         41.01534        48.75902        -3.06982
C         41.09582        50.22013        -3.39520
C         40.77014        50.55757        -4.84535
C         42.09083        52.65080        -4.58094
C         41.20774        51.79988        -5.37434
C         42.48005        53.97259        -5.05204
C         43.09982        48.80503        -1.76729
C         41.94439        48.12704        -2.32339
C         43.26596        50.19726        -2.04533
C         42.39898        50.84179        -2.94520
C         43.65246        53.02527        -2.65911
C         42.69354        52.14846        -3.42999
C         44.47638        53.95041        -3.56301
C         43.57487        54.60945        -4.58339
C         45.11047        45.99397        -0.39230
C         44.05188        46.68448        -0.91381
C         45.20333        48.81111        -0.43837
C         44.09420        48.10735        -1.04038
C         45.31790        50.21441        -0.58273
C         44.39191        50.91668        -1.45032
C         45.52438        53.08522        -1.00252
C         44.56871        52.25579        -1.74768
C         45.88570        54.42427        -1.50639
C         45.30165        54.90358        -2.70335
C         46.35083        57.04918        -2.32150
C         45.59065        56.20503        -3.12821
C         47.57416        44.60404         0.14879
C         47.43891        45.92060         0.52328
C         46.24966        46.67594         0.14286
C         47.25535        48.77257         1.08666
C         46.23240        48.06754         0.22783
C         47.42054        50.23560         0.72229
C         46.43934        50.90693         0.02331
C         47.68802        53.14171         0.33147
C         46.48276        52.38983        -0.05451
C         47.72043        54.53313         0.17451
C         46.80275        55.21113        -0.75114
C         47.60365        57.55401        -0.27278
C         46.93593        56.58838        -1.13438
C         48.29667        58.68537        -0.59008
C         49.81585        44.40351         1.08622
C         48.78836        43.88059         0.36412
C         49.66723        45.75402         1.76981
C         48.57410        46.61585         1.12735
C         49.70520        48.67394         1.89067
C         48.55257        47.97766         1.25379
C         49.71005        50.18033         1.87255
C         48.54154        50.97786         1.34424
C         49.88521        53.07474         1.43947
C         48.75239        52.42475         1.01299
C         50.13872        54.52736         1.06352
C         48.83467        55.23544         0.81676
C         49.90514        57.34720         1.63907
C         48.76107        56.52580         1.24789
C         49.67210        58.78902         1.48195
C         48.99973        59.40060         0.46207
C         52.36510        41.57675         1.02373
C         51.22198        42.26768         0.81414
C         52.20405        44.28516         2.02383
C         50.99449        43.58200         1.44832
C         52.18946        45.77523         2.00342
C         51.01638        46.46153         1.88707
C         52.31457        48.66079         2.43156
C         50.98577        47.92596         2.15575
C         52.32077        50.08204         1.89338
C         51.04953        50.84560         1.74930
C         52.32539        53.04479         2.23563
C         51.03396        52.32462         1.98447
C         52.35881        54.51659         2.12472
C         51.03233        55.23589         2.13115
C         52.39213        57.53003         2.14689
C         51.09664        56.76695         1.98753
C         52.48935        58.96193         2.61993
C         51.38584        59.82697         2.84431
C         52.78897        61.58118         3.75654
C         51.53411        61.09224         3.43397
C         54.67721        39.82490         1.90452
C         54.41213        41.18456         2.29998
C         53.43197        42.06246         1.87644
C         54.83290        44.28647         2.17295
C         53.49931        43.51932         2.19447
C         54.78038        45.72589         1.73811
C         53.48517        46.48508         1.78999
C         54.77631        48.62218         1.86554
C         53.56561        47.94299         1.95473
C         54.80083        50.09435         1.95680
C         53.61599        50.80247         2.01479
C         54.88606        53.00803         1.97834
C         53.58371        52.27925         1.93728
C         54.90389        54.43771         2.43679
C         53.57966        55.21399         2.45684
C         54.96534        57.34817         2.60782
C         53.66309        56.69988         2.28210
C         54.99526        58.71674         2.75463
C         53.78164        59.50984         2.92450
C         55.27995        61.35593         3.92867
C         53.92563        60.82491         3.46462
C         55.38072        62.85532         4.07641
C         57.22389        39.99759         1.76561
C         55.94609        39.30624         1.83014
C         57.32590        41.44071         1.78222
C         56.29407        42.26104         2.29293
C         57.26368        44.32695         1.45587
C         56.13138        43.61080         1.95382
C         57.23014        45.75501         1.41743
C         56.04963        46.49305         1.67382
C         57.28230        48.63925         1.52817
C         56.03139        47.91068         1.66556
C         57.30380        50.08554         1.74898
C         56.08397        50.79387         1.94122
C         57.34868        52.90302         2.09785
C         56.12850        52.20751         2.04348
C         57.35538        54.38735         1.97100
C         56.14780        55.18023         2.25141
C         57.47775        57.22064         2.53882
C         56.20152        56.56169         2.46913
C         57.51966        58.65511         2.99190
C         56.30499        59.43945         2.52651
C         57.59836        61.50628         2.97660
C         56.40381        60.82898         3.10454
C         57.69013        62.92566         3.22906
C         56.49579        63.55531         3.75662
C         59.64717        37.12119         1.48613
C         58.46682        37.81841         1.49702
C         59.59835        39.95562         0.98498
C         58.38542        39.25060         1.44024
C         59.66860        41.42374         1.02798
C         58.49170        42.14633         1.32145
C         59.71484        44.24802         1.03096
C         58.47765        43.58128         1.23813
C         59.71683        45.71471         0.81121
C         58.42840        46.49913         1.00136
C         59.72415        48.69162         0.93666
C         58.46172        47.96216         1.20843
C         59.79874        50.15344         1.38191
C         58.53316        50.79386         1.81467
C         59.85406        52.84003         2.41007
C         58.56113        52.18352         2.06078
C         59.89186        54.33858         2.48006
C         58.67472        55.09877         2.06454
C         59.94081        57.22504         2.27503
C         58.68126        56.54165         2.37401
C         59.95099        58.65801         2.25608
C         58.77619        59.38438         2.56696
C         60.00001        61.49212         2.30385
C         58.79045        60.77920         2.56545
C         60.04525        62.90980         2.43129
C         58.87224        63.61963         2.90399
C         60.09972        65.72107         2.63285
C         58.97118        65.04859         3.00645
C         62.36459        35.59761         1.28403
C         62.30347        37.04677         1.33593
C         60.94668        37.79771         1.42282
C         62.18359        39.95454         0.80214
C         60.91078        39.19608         0.91204
C         62.16244        41.39246         0.79903
C         60.91572        42.09692         0.90923
C         62.19233        44.20718         1.24081
C         60.91352        43.51961         0.97537
C         62.21178        45.69170         1.35525
C         61.02725        46.44790         0.85486
C         62.28124        48.67936         1.21487
C         61.03961        47.95768         0.87879
C         62.31396        50.06959         1.39648
C         61.11395        50.76380         1.65365
C         62.49014        52.84936         2.33859
C         61.17093        52.09220         2.29871
C         62.49996        54.35609         2.29325
C         61.19582        55.09168         2.41207
C         62.32247        57.17482         1.62261
C         61.15330        56.52266         2.05440
C         62.28220        58.60479         1.44906
C         61.12721        59.34353         1.87947
C         62.35567        61.46207         1.58223
C         61.15616        60.76599         1.90423
C         62.41038        62.85564         1.73579
C         61.25721        63.59618         2.13623
C         62.41981        65.75997         1.75298
C         61.28767        65.04620         2.17711
C         62.45697        67.19733         1.70198
C         64.58856        35.57671         0.22567
C         63.47322        34.92548         0.78956
C         64.37539        37.03440        -0.16825
C         63.56544        37.79419         0.90373
C         64.52963        40.00113         0.11974
C         63.33665        39.24857         0.52513
C         64.62802        41.42312         0.49433
C         63.41346        42.11378         0.77023
C         64.67057        44.24288         0.81159
C         63.46256        43.51104         0.98819
C         64.74884        45.66443         1.02138
C         63.53107        46.40884         1.43675
C         64.84924        48.61660         1.33612
C         63.52583        47.91522         1.42960
C         64.88998        50.07732         1.15250
C         63.58384        50.87178         1.08709
C         64.90227        52.95811         1.49333
C         63.77979        52.09091         2.03608
C         64.85205        54.32586         1.35363
C         63.65069        55.07224         1.67725
C         64.65280        57.11865         0.72002
C         63.54914        56.43500         1.38371
C         64.42393        58.50220         0.24297
C         63.34874        59.29528         0.86705
C         64.56585        61.40107         0.48121
C         63.45385        60.72714         0.96932
C         64.91891        62.77822         0.98438
C         63.71070        63.54341         1.55286
C         64.79788        65.74338         0.81584
C         63.68860        65.04364         1.48889
C         64.81742        67.20925         0.95733
C         63.58643        67.88551         1.38996
C         67.10073        32.79323        -0.13667
C         65.91795        33.46234         0.09637
C         67.01137        35.56899        -0.40702
C         65.82167        34.87769        -0.04892
C         66.97261        37.02922        -0.61824
C         65.68620        37.76632        -0.48618
C         67.04375        39.90885         0.17712
C         65.75001        39.26391        -0.30048
C         67.04215        41.40621        -0.08025
C         65.83378        42.11604         0.28980
C         66.99051        44.26998        -0.04293
C         65.84731        43.54605         0.38608
C         67.01547        45.68212         0.06917
C         65.93045        46.35189         0.71336
C         67.34378        48.50554         0.63632
C         66.08872        47.78858         1.04437
C         67.36468        50.01845         0.76698
C         66.08602        50.72729         1.06149
C         67.32960        52.92458         0.58549
C         66.15351        52.20671         1.19980
C         67.19147        54.36262         0.28690
C         66.12012        55.12470         1.04173
C         66.92232        57.16707        -0.26294
C         65.84383        56.48537         0.43740
C         66.82294        58.55269        -0.58717
C         65.52325        59.23942        -0.45858
C         66.74781        61.45196        -0.80456
C         65.42347        60.76581        -0.58315
C         66.76220        62.90987        -0.73429
C         65.78592        63.59272         0.03152
C         66.86265        65.74213        -0.55558
C         65.81289        65.02681         0.11889
C         66.79005        67.21321        -0.67425
C         65.86980        67.99346         0.20550
C         66.73723        70.09810        -0.73274
C         65.72005        69.42427        -0.17629
C         69.60669        31.35847        -0.67510
C         69.52111        32.76803        -0.79039
C         68.28993        33.47633        -0.50054
C         69.43710        35.63522        -0.97198
C         68.24193        34.89572        -0.60887
C         69.43321        37.08035        -0.93910
C         68.25671        37.76229        -0.57093
C         69.52052        39.99208        -0.82403
C         68.29807        39.17019        -0.25346
C         69.31231        41.41665        -1.09951
C         68.13722        42.09576        -0.57409
C         69.06141        44.24240        -1.35637
C         68.09221        43.55145        -0.66438
C         69.03053        45.71354        -1.39513
C         68.09603        46.44275        -0.51887
C         69.42728        48.52311        -0.76252
C         68.27470        47.80569        -0.28208
C         69.57639        49.96388        -0.44142
C         68.40935        50.76240         0.01511
C         69.43804        52.87534        -0.78331
C         68.38908        52.13318        -0.09664
C         69.34397        54.29234        -0.91595
C         68.18751        55.02452        -0.40246
C         69.19423        57.16986        -1.20975
C         68.10161        56.46584        -0.61911
C         69.13632        58.58987        -1.39230
C         67.92091        59.27577        -1.08402
C         68.92039        61.39584        -1.97412
C         67.82922        60.71934        -1.24922
C         68.87780        62.92990        -2.07574
C         67.83117        63.63857        -1.32609
C         69.05818        65.75408        -1.76833
C         67.91178        65.05204        -1.20680
C         69.15198        67.21854        -1.63380
C         67.92712        67.98339        -1.27274
C         68.94810        70.14687        -2.02686
C         68.10051        69.47159        -0.94358
C         68.78947        71.51216        -2.30842
C         71.90337        31.39555        -1.41991
C         70.77613        30.68183        -0.98232
C         71.84780        32.77611        -1.53573
C         70.66845        33.49385        -1.22363
C         71.75859        35.70000        -1.72577
C         70.61682        34.94493        -1.31167
C         71.73247        37.07105        -1.79831
C         70.58680        37.81530        -1.39193
C         71.36873        39.95666        -2.43791
C         70.52606        39.23298        -1.55911
C         71.22728        41.32412        -2.60251
C         70.20411        42.06637        -1.94857
C         71.41016        44.26331        -2.17430
C         70.07171        43.54677        -2.24824
C         71.49675        45.59601        -2.03444
C         70.29876        46.44407        -1.83059
C         71.53568        48.59957        -2.04677
C         70.44520        47.86741        -1.45986
C         71.60532        49.95686        -1.99837
C         70.71833        50.72790        -1.11949
C         71.55862        52.91420        -1.98556
C         70.56164        52.19143        -1.30938
C         71.48753        54.29349        -2.08328
C         70.40205        55.00596        -1.53179
C         71.48760        57.18498        -2.04261
C         70.37245        56.46073        -1.60161
C         71.44863        58.57200        -2.17115
C         70.27962        59.29529        -1.89704
C         71.27774        61.46464        -2.64334
C         70.20802        60.72182        -2.16851
C         71.23710        62.87743        -2.76804
C         70.12994        63.62744        -2.40986
C         71.14958        65.81718        -3.06821
C         70.12661        65.07740        -2.36160
C         71.14964        67.17156        -3.17883
C         70.22995        67.99069        -2.38453
C         70.74136        70.08294        -3.67340
C         69.96564        69.42714        -2.70249
C         70.54607        71.43286        -3.96185
C         69.57502        72.15296        -3.26712
O         50.01713        48.17961         3.25670
O         59.64768        49.75397        -0.04633
O         67.27900        52.65173         2.04910
O         51.48322        52.57713         3.37893
O         53.21620        57.19079         0.96684
O         66.06415        67.72982         1.61680
O         69.18517        46.23953        -2.77474
O         60.10863        39.36102        -0.28850
O         63.39012        51.32212        -0.21175
O         63.51265        47.14581         2.69977
O         55.38251        41.68768         3.18437
O         66.14938        37.40406        -1.83160
O         64.45787        58.58895        -1.24715
O         62.75382        53.62812         3.54542
O         54.16059        43.95508         3.42211
O         68.39976        62.07852        -3.16730
O         66.76867        67.67114        -2.08905
O         51.21661        43.66161         2.90146
O         47.55221        57.21778         1.10552
O         54.02258        45.95819         0.49344
O         64.97580        39.90961        -1.33623
O         60.43894        52.16209         3.56867
O         48.75191        50.74186         2.80667
O         45.26354        53.03680         0.44936
O         58.12557        54.77802         0.75514
O         65.72898        48.14203         2.40366
O         60.49046        54.86245         3.68786
O         70.34206        67.71179        -0.93285
O         61.79112        37.59732         2.60305
O         58.91414        46.09430        -0.34382
O         70.80222        50.30576         0.28170
O         54.18666        52.81635         0.70005
O         69.41983        39.58475         0.58216
O         61.27957        47.17480        -0.37311
O         67.97734        49.15762         1.78295
O         54.22590        54.70708         3.70506
O         62.02770        44.90679         2.56734
O         64.12610        64.30405         2.74076
O         51.72971        50.32810         0.55738
O         50.06299        59.60059         2.54068
O         55.50252        60.78414         5.27283
H         56.10320        60.00621         5.17650
O         63.57376        37.02695        -1.36724
H         64.19929        37.01507        -2.12817
O         64.68115        61.06102        -1.81288
H         64.20073        60.22912        -2.05021
O         69.59151        43.66052        -3.61787
H         69.37515        44.61581        -3.75570
O         56.42217        59.56165         1.07939
H         55.56983        59.89383         0.72817
O         66.72532        55.39085         2.35314
H         67.03069        54.51412         2.69523
O         68.81413        69.58411         0.30783
H         69.65400        69.07349         0.20670
O         42.85520        53.89956        -1.80757
H         42.56395        53.38515        -1.02559
O         49.18162        45.49681         3.11333
H         49.21831        46.35635         3.59454
O         64.22306        51.51974         3.28152
H         64.09816        52.20427         3.97789
O         65.81394        62.50265         2.11305
H         65.63484        63.21132         2.77989
O         57.46733        58.65544         4.45424
H         58.24209        58.15720         4.79155
O         45.42558        53.11759        -4.28672
H         45.85862        53.67126        -4.96910
O         46.68453        48.80099         2.44080
H         47.26503        49.38850         2.98241
O         50.43085        55.05015         3.43903
H         50.64655        54.13448         3.75335
O         40.04039        50.87380        -2.60172
H         40.07657        51.83270        -2.80669
O         50.92033        54.51089        -0.16080
H         50.39574        54.06930        -0.86045
O         64.42281        37.84281         2.07223
H         63.85633        38.06907         2.84350
O         66.98968        39.75408         1.62720
H         67.90214        39.90761         1.96255
O         52.45612        48.77501         3.86928
H         51.54964        48.75406         4.25775
H         39.58118        48.77923        -5.21987
H         38.93177        49.44148        -7.51210
H         41.17118        53.10354        -7.12146
H         39.72762        51.61333        -8.46583
H         40.12625        48.20279        -3.39940
H         41.88232        54.44879        -5.84290
H         41.79741        47.06078        -2.10434
H         43.87165        55.56464        -5.04073
H         45.05832        44.89847        -0.35224
H         43.18833        46.12090        -1.28839
H         46.48284        58.10188        -2.60867
H         45.16948        56.60230        -4.06088
H         46.76339        44.07799        -0.37023
H         48.29379        59.08850        -1.61306
H         48.85269        42.86824        -0.05761
H         49.00771        60.50099         0.42872
H         52.48099        40.57626         0.58188
H         50.44880        41.84163         0.16145
H         52.87019        62.56828         4.22660
H         50.63302        61.69188         3.61371
H         53.83404        39.15944         1.66448
H         54.54841        63.39663         4.54824
H         55.98844        38.23431         1.58792
H         56.50282        64.64036         3.93624
H         59.62708        36.03552         1.65633
H         57.54762        37.23684         1.65362
H         60.10258        66.81582         2.71481
H         58.10911        65.62446         3.36950
H         61.55700        35.02275         1.75849
H         61.55768        67.76711         1.97120
H         63.48909        33.83377         0.91895
H         63.59302        68.98204         1.45102
H         67.10415        31.69956        -0.04036
H         65.03134        32.87489         0.36794
H         66.58892        71.15769        -0.98477
H         64.76283        69.93246         0.01382
H         68.73792        30.77915        -0.33562
H         68.04072        72.10476        -1.76647
H         72.83078        30.86081        -1.66699
H         70.82068        29.58838        -0.88550
H         72.74606        33.30814        -1.87513
H         72.68365        35.18142        -2.00849
H         72.63157        37.60741        -2.13203
H         72.13912        39.42522        -3.01378
H         71.88652        41.84441        -3.31065
H         72.33211        43.67343        -2.28840
H         72.48478        46.07825        -1.98419
H         72.24030        48.05177        -2.68850
H         72.33620        50.47753        -2.63164
H         72.43148        52.39806        -2.40550
H         72.29970        54.82245        -2.59693
H         72.42284        56.67097        -2.29768
H         72.34869        59.08778        -2.52996
H         72.23592        60.97355        -2.86021
H         72.16620        63.38166        -3.06762
H         71.88653        65.24752        -3.65080
H         71.85476        67.65377        -3.86969
H         71.52579        69.53545        -4.21278
H         71.16636        71.92581        -4.72260
H         69.42641        73.22226        -3.47023
