         640
 CSIRO Nanostructure Databank - Neutral Graphene Oxide Data Set
C         23.55979        27.86141        -3.31687
C         23.49674        29.23528        -2.95873
C         23.37584        32.08773        -2.24122
C         23.32863        33.41914        -1.86960
C         23.14538        36.18432        -0.87714
C         23.12170        37.54326        -0.58156
C         23.13972        40.46385        -0.19666
C         23.07490        41.76910         0.17654
C         22.99489        44.68606         0.94752
C         22.99948        46.01121         1.12341
C         25.83912        24.94555        -3.18805
C         24.76546        25.71139        -3.48653
C         25.73559        27.61593        -2.21442
C         24.64914        27.06492        -2.98552
C         25.55737        28.97674        -1.57451
C         24.47560        29.84146        -2.19776
C         25.52852        31.85610        -1.13653
C         24.46225        31.25924        -1.87081
C         25.49471        33.21428        -0.77884
C         24.36694        34.01044        -1.11128
C         25.48126        36.04427        -0.18754
C         24.30549        35.40612        -0.70734
C         25.47264        37.45393         0.06370
C         24.27396        38.22503        -0.12412
C         25.40496        40.27212         0.72991
C         24.26822        39.63819         0.14265
C         25.41991        41.63677         1.06463
C         24.13853        42.37049         0.99842
C         25.38608        44.47893         1.93623
C         24.09923        43.81330         1.41670
C         25.44896        45.96742         1.68401
C         24.14796        46.74359         1.77104
C         25.46311        48.75041         1.20795
C         24.29244        48.11088         1.14850
C         28.51844        23.54820        -3.05381
C         28.20511        24.69290        -2.15996
C         26.91024        25.44701        -2.30572
C         28.07013        27.51541        -1.37828
C         26.88089        26.88498        -1.94463
C         28.05450        28.89093        -1.08925
C         26.88099        29.73969        -1.53441
C         27.91836        31.66259        -0.17310
C         26.69159        31.01656        -0.74183
C         27.91780        33.12500         0.00369
C         26.56943        33.79652         0.12434
C         27.88134        35.96264         0.31930
C         26.65937        35.29891         0.05486
C         27.88318        37.37819         0.55019
C         26.66046        38.07705         0.51875
C         27.92334        40.20663         1.20935
C         26.59847        39.46170         0.99711
C         27.89916        41.67272         1.19104
C         26.65237        42.35332         1.31600
C         27.88398        44.47906         1.50571
C         26.66070        43.76339         1.51933
C         27.90582        45.91261         1.68638
C         26.64055        46.63143         1.76007
C         27.90829        48.84015         1.83954
C         26.58690        48.13534         2.01365
C         27.96937        50.20619         1.76196
C         30.57607        23.19546        -1.73126
C         29.67734        22.89284        -2.91373
C         30.57873        24.68361        -1.44513
C         29.39298        25.39642        -1.59927
C         30.48379        27.43826        -0.80210
C         29.29681        26.77523        -1.22821
C         30.45671        28.84353        -0.54069
C         29.23061        29.55966        -0.64638
C         30.39171        31.63334        -0.04321
C         29.21089        30.95221        -0.30048
C         30.39576        33.07122         0.42331
C         29.09450        33.80753         0.18592
C         30.36224        35.94463         0.40801
C         29.11740        35.24055         0.33198
C         30.36105        37.36845         0.58160
C         29.13387        38.08159         0.72239
C         30.36722        40.22208         0.75347
C         29.15984        39.48763         0.89159
C         30.36263        41.67024         0.89758
C         29.12493        42.37394         1.13275
C         30.36445        44.50503         1.31344
C         29.12605        43.79192         1.30079
C         30.37162        45.91835         1.52104
C         29.13067        46.60059         1.71931
C         30.46691        48.82273         1.76256
C         29.14388        48.06049         1.96904
C         30.39701        50.24876         1.40129
C         29.18937        50.90430         1.52016
C         33.37178        20.75295        -2.53057
C         32.11992        21.35759        -2.47525
C         33.07249        23.20330        -1.21403
C         31.96137        22.59833        -1.85401
C         32.95851        24.57602        -0.73198
C         31.75584        25.31249        -0.92946
C         32.90270        27.40562        -0.27592
C         31.71115        26.71715        -0.65902
C         32.89687        28.82891        -0.11895
C         31.66355        29.54538        -0.24660
C         32.87474        31.68567         0.06664
C         31.64108        30.95283        -0.08194
C         32.87723        33.09306         0.07352
C         31.57995        33.82236        -0.18248
C         32.82908        35.96366         0.30428
C         31.59930        35.26824         0.24617
C         32.83633        37.38173         0.42801
C         31.59065        38.08661         0.54532
C         32.82026        40.22724         0.29815
C         31.56987        39.50587         0.55782
C         32.81645        41.73605         0.44122
C         31.56122        42.40162         0.83626
C         32.84501        44.50523         1.11024
C         31.59076        43.80233         1.08780
C         32.84532        45.89365         1.30131
C         31.62640        46.62482         1.45728
C         32.86838        48.75841         1.12060
C         31.66905        48.04873         1.43732
C         32.83190        50.18003         0.86141
C         31.61089        50.90655         0.93858
C         32.77713        52.92119         0.20500
C         31.61195        52.27261         0.59028
C         35.69726        19.04072        -1.74424
C         35.75214        20.51251        -2.05934
C         34.47404        21.29291        -1.84296
C         35.24785        23.03208        -0.02325
C         34.31424        22.50156        -1.12295
C         35.32866        24.53755        -0.05435
C         34.12613        25.25843        -0.26419
C         35.30466        27.37084         0.30528
C         34.10995        26.68197        -0.08192
C         35.31861        28.81732         0.37227
C         34.09982        29.53239         0.14161
C         35.33021        31.67646         0.24769
C         34.10808        30.96613         0.16953
C         35.33729        33.10508         0.22700
C         34.09015        33.81523         0.17082
C         35.31187        35.94817         0.30403
C         34.08402        35.24482         0.23856
C         35.32058        37.37531         0.38103
C         34.08194        38.09469         0.42340
C         35.31505        40.23328         0.43833
C         34.09747        39.50779         0.41392
C         35.32212        41.67111         0.52805
C         34.10445        42.41346         0.66542
C         35.35401        44.50265         0.93567
C         34.10239        43.78689         0.93652
C         35.37188        45.90136         1.09410
C         34.13704        46.63333         1.54544
C         35.30664        48.75848         0.83075
C         34.09574        48.06662         1.07801
C         35.28340        50.15076         0.53877
C         34.03875        50.85909         0.51639
C         35.24793        52.92655        -0.17094
C         34.01174        52.24531         0.17719
C         35.27762        54.26657        -0.58944
C         37.98726        18.93042        -0.73342
C         36.65688        18.33120        -1.11942
C         37.83280        20.25108         0.00752
C         36.62713        20.94800         0.23439
C         37.80856        23.09989         0.19101
C         36.59578        22.36452         0.12937
C         37.78135        24.53303         0.30348
C         36.52600        25.22506         0.24665
C         37.71105        27.29658         0.94601
C         36.49408        26.63573         0.47508
C         37.73909        28.85498         0.97394
C         36.51876        29.53785         0.55096
C         37.80143        31.64758         0.39606
C         36.56986        30.95843         0.38073
C         37.82507        33.09018         0.26392
C         36.56458        33.81463         0.23922
C         37.78542        35.96521         0.20576
C         36.56185        35.24009         0.23989
C         37.79780        37.36667         0.32110
C         36.55087        38.08397         0.39613
C         37.78962        40.21459         0.43664
C         36.54984        39.50849         0.43828
C         37.77804        41.62575         0.43281
C         36.56739        42.36155         0.53156
C         37.79377        44.52164         0.65479
C         36.58120        43.80169         0.67790
C         37.81695        45.93238         0.79888
C         36.57573        46.62712         0.95241
C         37.77323        48.76340         0.68467
C         36.56017        48.05771         0.85550
C         37.75265        50.16571         0.42771
C         36.50916        50.84512         0.30387
C         37.71379        52.89913        -0.31837
C         36.48403        52.22357        -0.06507
C         37.70242        54.23212        -0.81784
C         36.47949        54.88966        -0.94486
C         40.27611        15.95766         0.07597
C         39.06425        16.67778        -0.11810
C         40.16389        18.78374         0.49748
C         39.01109        18.05174        -0.03316
C         40.24068        20.24602         0.38833
C         39.05552        20.96923         0.19341
C         40.29939        23.08109         0.38428
C         39.04534        22.39766         0.30785
C         40.28015        24.55074         0.27817
C         38.99540        25.26032         0.49054
C         40.22165        27.35721         1.19411
C         38.99127        26.61283         0.80605
C         40.24605        28.84352         1.07081
C         39.03446        29.54135         0.85341
C         40.28919        31.60112         0.45675
C         39.04810        30.92895         0.54907
C         40.31131        33.01379        -0.07024
C         39.02806        33.76955         0.16014
C         40.31256        35.95085         0.24358
C         39.04901        35.23999        -0.17764
C         40.30683        37.34733         0.43297
C         39.04488        38.08941         0.39318
C         40.27900        40.22974         0.63657
C         39.03869        39.48713         0.45383
C         40.30024        41.59275         0.58776
C         39.06064        42.33434         0.28514
C         40.33819        44.53861         0.64599
C         39.06496        43.83208         0.38218
C         40.32310        45.95728         0.72441
C         39.04923        46.66106         0.76993
C         40.25154        48.82663         0.76071
C         39.03209        48.07184         0.74944
C         40.23974        50.21066         0.60091
C         38.98363        50.89562         0.33811
C         40.10615        53.15698         0.28290
C         38.94928        52.24551        -0.01991
C         40.22113        54.34530        -0.63319
C         38.99177        54.79719        -1.38395
C         40.11798        57.00674        -1.61544
C         38.97849        56.27977        -1.63656
C         42.75638        15.95591         0.13872
C         41.49100        16.60435         0.28178
C         42.76505        18.79736         0.57410
C         41.50201        18.02624         0.64652
C         42.76042        20.20022         0.65468
C         41.46538        20.93775         0.92580
C         42.76498        23.09113         0.61660
C         41.49886        22.40159         0.57087
C         42.80688        24.50274         0.66704
C         41.56632        25.27113         0.52405
C         42.81074        27.37132         1.13933
C         41.53186        26.63822         1.11458
C         42.74263        28.83160         1.52317
C         41.47575        29.53267         1.05334
C         42.75531        31.64953         0.71749
C         41.49491        30.92336         0.74500
C         42.75400        33.07230         0.51394
C         41.54376        33.78783         0.32503
C         42.76514        35.93211         0.46043
C         41.52994        35.21168         0.33874
C         42.75897        37.35700         0.58004
C         41.52758        38.04088         0.65807
C         42.79662        40.23990         0.74337
C         41.51919        39.48956         1.08562
C         42.80562        41.63148         0.73952
C         41.52048        42.35321         1.05646
C         42.77565        44.53044         0.68743
C         41.53974        43.82804         0.72092
C         42.77098        45.95899         0.66744
C         41.53924        46.65792         0.77565
C         42.76552        48.84149         0.55379
C         41.54700        48.13133         1.09684
C         42.70114        50.26733         0.42408
C         41.48824        50.94773         0.56144
C         42.72214        53.20494         0.37818
C         41.43894        52.44006         0.54401
C         42.67578        54.53871        -0.27516
C         41.40997        55.08975        -0.68949
C         42.57593        57.14092        -1.37903
C         41.38392        56.41793        -1.24816
C         43.93635        16.65770         0.23139
C         45.22919        18.79771         0.50347
C         43.98240        18.07750         0.41961
C         45.23358        20.21513         0.58755
C         43.98551        20.93230         0.61377
C         45.26044        23.11605         0.40632
C         43.98305        22.35084         0.63943
C         45.22235        24.52480         0.94109
C         44.02866        25.21732         0.91804
C         45.26334        27.38684         1.20700
C         43.99397        26.67446         1.11940
C         45.24242        28.83537         1.19135
C         44.02045        29.55113         1.18683
C         45.21110        31.68718         0.88626
C         43.98012        30.96601         0.95403
C         45.20887        33.05327         0.60856
C         43.99433        33.78680         0.48993
C         45.21768        35.96042         0.40489
C         44.00004        35.22252         0.42624
C         45.23593        37.37074         0.49302
C         44.00784        38.08663         0.60027
C         45.25504        40.23225         0.52926
C         44.01917        39.51215         0.61880
C         45.25732        41.66124         0.54943
C         44.02554        42.37542         0.63311
C         45.24601        44.53902         0.54591
C         44.02293        43.81127         0.63914
C         45.23382        45.98425         0.48535
C         44.00788        46.68957         0.54583
C         45.22079        48.86275         0.23479
C         43.96937        48.13296         0.41709
C         45.21536        50.24011         0.11156
C         43.92842        51.00662        -0.08203
C         45.22380        53.14755        -0.17679
C         44.05725        52.44058         0.48047
C         45.15115        54.50599        -0.55867
C         43.86577        55.21330        -0.59997
C         43.79693        56.53991        -1.09987
C         47.65727        18.78024         0.74340
C         46.47327        18.10543         0.55567
C         47.69492        20.19581         0.83830
C         46.47963        20.93198         0.71391
C         47.73406        23.05745         0.86777
C         46.50947        22.35286         0.74984
C         47.75123        24.50549         1.02233
C         46.46985        25.18848         1.45019
C         47.72157        27.38467         1.24078
C         46.46803        26.68873         1.24055
C         47.71092        28.82532         1.20467
C         46.49383        29.52306         1.17306
C         47.75354        31.69094         0.93910
C         46.47663        31.01592         1.36681
C         47.75430        33.06271         0.63878
C         46.48422        33.73840         0.33628
C         47.75838        35.95912         0.36959
C         46.48323        35.24483         0.20482
C         47.73018        37.38715         0.37826
C         46.49082        38.08869         0.42966
C         47.72368        40.23584         0.38793
C         46.48714        39.51330         0.44108
C         47.71178        41.65115         0.47084
C         46.49835        42.38312         0.52348
C         47.70071        44.56745         0.39193
C         46.48511        43.82636         0.50427
C         47.69780        45.96300         0.29134
C         46.47764        46.71004         0.34542
C         47.68651        48.85583        -0.03605
C         46.47959        48.13012         0.23621
C         47.69250        50.23333        -0.26378
C         46.50707        51.01933         0.22954
C         47.58783        53.06126        -0.80595
C         46.42461        52.42941        -0.30699
C         47.50854        54.42283        -1.16291
C         46.32122        55.12500        -1.04390
C         50.15505        20.21263         1.24673
C         48.94425        20.90215         0.99287
C         50.23737        23.02371         0.90632
C         48.94951        22.32187         0.91153
C         50.24004        24.53723         0.96833
C         48.93161        25.22434         1.10420
C         50.19930        27.38727         1.20883
C         48.94631        26.66981         1.25490
C         50.17002        28.82109         1.09468
C         48.97424        29.52921         1.14463
C         50.18547        31.71247         0.95071
C         48.97029        30.98552         1.01440
C         50.17902        33.09724         0.76840
C         48.96440        33.79463         0.55993
C         50.21343        35.95533         0.36119
C         48.95856        35.24247         0.43108
C         50.19817        37.38121         0.20980
C         48.96786        38.10095         0.29271
C         50.20721        40.22231         0.12822
C         48.96708        39.52281         0.28344
C         50.23390        41.63990         0.16702
C         49.00370        42.35372         0.54308
C         50.22032        44.52103        -0.04146
C         49.00311        43.87031         0.48597
C         50.20540        45.93496        -0.22343
C         49.00017        46.66432         0.20638
C         50.16496        48.80848        -0.60206
C         48.98705        48.16449        -0.00373
C         50.09911        50.19576        -0.90352
C         48.87473        50.91917        -0.69107
C         50.01237        52.96022        -1.39076
C         48.83657        52.31669        -0.95323
C         51.36956        20.89787         1.41426
C         52.74023        22.98797         1.32835
C         51.44568        22.26989         1.25336
C         52.73952        24.49501         1.48319
C         51.40852        25.24166         1.65847
C         52.69335        27.37988         1.15470
C         51.44081        26.70464         1.26144
C         52.71891        28.82046         0.99621
C         51.43290        29.56247         0.71422
C         52.69037        31.71128         0.71484
C         51.47864        30.99066         1.27088
C         52.65534        33.05171         0.48612
C         51.47019        33.85751         0.94066
C         52.65910        35.93772         0.09557
C         51.43538        35.26123         0.39161
C         52.65185        37.36281        -0.07643
C         51.42676        38.08035         0.03005
C         52.65199        40.20598        -0.26765
C         51.42843        39.50562        -0.05331
C         52.66475        41.63836        -0.31135
C         51.41985        42.35511        -0.09833
C         52.58199        44.41781        -0.90584
C         51.37961        43.77545        -0.25887
C         52.57984        45.92639        -0.87966
C         51.36624        46.63942        -0.62364
C         52.53981        48.73925        -1.25393
C         51.35138        48.07070        -0.80225
C         52.50728        50.14096        -1.50749
C         51.27267        50.87551        -1.34686
C         51.19685        52.26577        -1.57974
C         55.09003        23.07857         0.62469
C         53.93963        22.36544         0.75692
C         55.14765        24.50733         0.81071
C         53.95188        25.22441         1.05824
C         55.19759        27.35355         1.01323
C         53.90454        26.64723         1.05389
C         55.20584        28.85730         1.00520
C         53.90378        29.52824         0.88520
C         55.13117        31.59571         0.35381
C         53.92310        30.94330         0.57931
C         55.11700        33.06660         0.23988
C         53.82563        33.72290        -0.18471
C         55.08403        35.90157        -0.36556
C         53.87021        35.22466        -0.06452
C         55.08679        37.33300        -0.48644
C         53.86901        38.05481        -0.33598
C         55.09131        40.17831        -0.66244
C         53.86901        39.48389        -0.43273
C         55.09943        41.61512        -0.68686
C         53.87950        42.32400        -0.50033
C         55.07252        44.51179        -0.98685
C         53.88386        43.83314        -0.35302
C         55.00548        45.82994        -1.36180
C         53.75727        46.58479        -1.22452
C         54.94732        48.68741        -1.81088
C         53.75727        48.01058        -1.42518
C         54.88424        50.07954        -2.04889
C         53.70154        50.78258        -1.91189
C         57.63377        24.56173         0.57184
C         56.40910        25.19723         0.60525
C         57.65502        27.42218         0.46925
C         56.34887        26.67556         0.30598
C         57.67218        28.80276         0.53669
C         56.44029        29.55423         0.59509
C         57.62877        31.63050        -0.03252
C         56.40638        30.92212         0.35914
C         57.57372        32.97876        -0.42888
C         56.39048        33.78024        -0.14580
C         57.51331        35.85975        -0.87401
C         56.30271        35.18985        -0.55821
C         57.52082        37.29474        -0.92512
C         56.30594        38.02290        -0.74447
C         57.53220        40.15441        -1.05243
C         56.30830        39.45451        -0.82301
C         57.52174        41.59189        -1.13525
C         56.32528        42.29844        -0.92753
C         57.40284        44.33380        -1.86414
C         56.39923        43.81328        -0.84089
C         57.42688        45.84100        -1.90981
C         56.21950        46.54671        -1.76417
C         57.40519        48.61249        -2.29532
C         56.19574        47.95477        -1.96047
C         58.85043        25.28191         0.38241
C         60.11918        27.40302         0.16318
C         58.88242        26.66681         0.34538
C         60.16039        28.75187         0.21589
C         58.96999        29.57877         0.63738
C         60.04067        31.65901        -0.42586
C         58.87433        30.94431        -0.02495
C         59.98612        32.91002        -0.97894
C         58.68038        33.60810        -1.23515
C         59.90877        35.83552        -1.26512
C         58.72139        35.12241        -1.08139
C         59.92959        37.23088        -1.28244
C         58.75016        37.98992        -1.12963
C         59.96498        40.16678        -1.32884
C         58.75334        39.43522        -1.17587
C         59.97157        41.53766        -1.43779
C         58.76559        42.29715        -1.40741
C         59.91918        44.43353        -1.99614
C         58.75502        43.68110        -1.69074
C         59.86277        45.78116        -2.28458
C         58.62947        46.51570        -2.22193
C         58.59638        47.91800        -2.41188
O         49.18165        43.17259         1.76286
O         53.00359        23.62705         2.64616
O         49.25796        47.57808         1.32693
O         27.16736        39.63644         2.33156
O         37.57426        28.05957         2.18940
O         26.93627        30.93638         0.69096
O         55.89095        33.69287         1.27343
O         29.96654        48.48336         3.10343
O         40.66477        18.31935         1.81443
O         50.49203        23.91838        -0.31141
O         40.83256        26.76943         2.42104
O         27.14391        24.49959        -1.16543
O         39.11035        43.16236        -0.94475
O         46.48028        34.37395        -0.99226
O         55.46917        28.07115         2.24417
O         32.74192        41.10404        -0.89117
O         36.72199        21.04188        -2.59565
O         23.61852        42.79595         2.36508
O         42.06841        53.11947         1.70694
O         41.02168        25.15899        -0.85222
O         52.55088        44.02840        -2.31626
H         51.76044        44.43899        -2.72411
O         46.77835        51.14123         1.67146
H         46.00208        51.61466         2.06625
O         35.48351        20.27908         0.53720
H         34.80815        20.94176         0.83801
O         39.09935        54.16084        -2.72527
H         39.88475        54.55051        -3.16602
O         51.60253        30.93257         2.70749
H         51.69393        31.85992         3.02524
O         26.25239        48.30175         3.42035
H         25.36190        47.88751         3.56163
O         23.85939        46.88753         3.19995
H         24.10407        46.02379         3.61511
O         56.87556        44.13608         0.49471
H         56.09598        44.10121         1.09594
O         58.34457        33.38286        -2.66723
H         58.35176        32.41384        -2.81994
O         46.44149        31.21072         2.83518
H         45.67422        30.70243         3.17788
O         27.19684        30.17691        -2.88510
H         27.30574        29.37967        -3.44516
O         25.17009        28.73241        -0.19537
H         24.36213        28.17853        -0.20089
O         46.43193        25.00082         2.91670
H         47.19709        25.48544         3.29487
O         30.60897        33.06122         1.85979
H         29.84004        32.62359         2.28150
O         34.26364        46.71111         3.01977
H         33.46920        47.18052         3.35523
O         51.64750        33.99172         2.40605
H         50.94309        34.59177         2.73270
O         41.41482        42.31384         2.54149
H         42.18609        42.80337         2.90165
O         29.97005        22.53932        -0.57271
H         29.08786        22.94694        -0.43120
O         55.99053        26.77377        -1.11934
H         56.68168        26.30049        -1.62941
O         44.39459        52.32993         1.88323
H         43.55161        52.43932         2.39109
O         41.30078        20.90258         2.39779
H         41.12394        19.95474         2.62654
O         56.90485        43.89224        -3.16856
H         57.51844        44.23324        -3.85246
O         25.31418        44.38840         3.40076
H         24.85044        43.53480         3.59106
O         31.36595        33.82151        -1.62848
H         32.10949        34.30646        -2.04390
O         41.46371        39.46899         2.55184
H         41.40244        40.41465         2.84043
O         51.36066        29.72813        -0.73891
H         51.31185        28.83693        -1.14430
O         39.08212        35.29178        -1.67582
H         38.20093        34.99296        -1.98990
O         26.12648        33.48236         1.49610
H         26.16146        32.49604         1.57105
O         41.66334        48.21645         2.56920
H         42.54024        47.85031         2.81341
O         53.71707        33.42962        -1.61924
H         52.85156        33.76720        -1.93283
O         40.42574        32.88262        -1.54229
H         40.20593        33.77455        -1.91334
O         42.65260        28.83202         2.99579
H         41.94834        28.17535         3.22575
O         59.17029        29.86547         2.06863
H         58.97066        29.04399         2.56590
O         51.06700        25.23288         3.07190
H         51.71261        24.63423         3.51937
O         53.99344        44.10449         1.07803
H         53.22727        43.68309         1.52446
O         45.33542        23.28496        -1.07572
H         44.49506        23.70638        -1.36035
O         34.49177        22.68073         1.21546
H         34.90854        23.16185         1.96292
O         38.66681        19.26944        -1.98472
H         38.12605        19.97591        -2.43034
O         43.73230        51.16868        -1.52499
H         43.67507        50.27416        -1.92246
O         39.67104        53.77819         1.54592
H         40.49614        53.99904         2.04248
H         22.75557        27.43881        -3.93585
H         22.65617        29.82147        -3.35601
H         22.53713        31.67287        -2.81611
H         22.45879        34.01805        -2.17090
H         22.22052        35.71823        -1.24335
H         22.17754        38.08783        -0.71442
H         22.30769        40.03390        -0.77079
H         22.18115        42.35830        -0.06762
H         22.10807        44.20068         0.51499
H         22.12747        46.60690         0.81225
H         25.88570        23.90209        -3.52941
H         23.95267        25.31503        -4.11274
H         25.58909        49.73936         0.74242
H         23.42979        48.54353         0.61859
H         27.82053        23.28561        -3.86259
H         27.04284        50.79657         1.78800
H         29.92443        22.07521        -3.60586
H         29.12240        51.98495         1.33634
H         33.49113        19.81775        -3.09536
H         31.26722        20.84509        -2.93897
H         32.72299        53.98678        -0.05432
H         30.67946        52.85090         0.62647
H         34.74097        18.53854        -1.96215
H         34.34565        54.83879        -0.68972
H         36.46809        17.26668        -0.90458
H         36.43219        55.91641        -1.33148
H         40.27677        14.87605        -0.12305
H         38.19033        16.11824        -0.48354
H         40.10363        58.07306        -1.88767
H         38.04430        56.75693        -1.96353
H         42.77669        14.87429        -0.05847
H         42.54513        58.17255        -1.75795
H         44.87606        16.10321         0.10906
H         44.71393        57.11474        -1.27724
H         48.58775        18.20035         0.79874
H         46.49883        17.01066         0.48252
H         48.38748        54.95343        -1.55006
H         46.31278        56.17995        -1.34458
H         50.15731        19.12145         1.35872
H         50.01310        54.04011        -1.58594
H         52.27599        20.32691         1.66068
H         52.08146        52.82362        -1.91291
H         55.98563        22.56716         0.24460
H         53.89698        21.31231         0.44536
H         55.78221        50.62975        -2.35810
H         53.70844        51.86082        -2.11758
H         57.70090        23.47356         0.71231
H         57.41816        49.69907        -2.45133
H         59.79143        24.71826         0.30792
H         61.03348        26.82753        -0.04889
H         61.12653        29.25994         0.08442
H         61.02600        31.18720        -0.30261
H         60.91842        33.36960        -1.33510
H         60.85526        35.30457        -1.43221
H         60.89209        37.73007        -1.45486
H         60.92355        39.63382        -1.37957
H         60.93284        42.04864        -1.58321
H         60.90321        43.94339        -1.98654
H         60.78784        46.32902        -2.51530
H         59.52631        48.45318        -2.65182
