         261
 CSIRO Nanostructure Databank - Neutral Graphene Oxide Data Set
C        -11.22827         0.72817         0.42688
C        -10.04816         1.55059         0.08075
C         -8.79775         0.78190        -0.35757
C         -7.71666         1.48545        -1.11855
C         -6.41496         0.74312        -1.22539
C         -5.15506         1.56118        -1.10858
C         -3.85671         0.89184        -0.76346
C         -2.55499         1.52798        -1.19030
C         -1.31590         0.93239        -0.56696
C         -0.01255         1.69031        -0.72602
C          1.29042         1.04420        -0.29710
C          2.62136         1.66815        -0.68157
C          3.92110         0.94653        -0.49172
C          5.13079         1.42506        -1.27027
C          6.39102         0.61970        -1.43137
C          7.77106         1.37298        -1.55444
C          8.79965         0.69998        -0.61830
C         10.14687         1.38863        -0.57430
C         11.33972         0.62788        -0.25603
C        -10.18083         2.96208        -0.23934
C         -9.03945         3.72577        -0.75265
C         -7.78924         2.99260        -1.17091
C         -6.49591         3.76451        -1.37650
C         -5.20230         2.99223        -1.61505
C         -3.88492         3.72925        -1.69760
C         -2.57393         2.95148        -1.64093
C         -1.29147         3.77232        -1.82005
C         -0.00274         2.92253        -1.61349
C          1.29729         3.66460        -1.69222
C          2.61549         2.94528        -1.48065
C          3.91555         3.67085        -1.65173
C          5.21740         2.92270        -1.47784
C          6.52643         3.61405        -1.31386
C          7.66421         2.73995        -0.80421
C          8.95369         3.51843        -0.67424
C         10.17471         2.75886        -0.60546
C         -8.97838         5.24582        -0.54748
C         -7.59256         5.75099        -0.15480
C         -6.44203         5.21770        -0.94469
C         -5.09699         5.89573        -0.83556
C         -3.83251         5.17341        -1.24169
C         -2.54379         5.65221        -0.59694
C         -1.24189         5.00405        -0.93968
C          0.02929         5.82667        -1.02192
C          1.30547         5.16968        -1.50012
C          2.61489         5.72281        -0.95355
C          3.95318         5.21708        -1.55954
C          5.17008         5.65515        -0.69783
C          6.55165         5.16174        -1.22038
C          7.69976         5.64398        -0.33570
C          8.91624         4.85398        -0.36230
C         -7.42051         6.68591         0.80824
C         -6.08849         7.24259         1.15341
C         -4.94245         6.91614         0.25637
C         -3.72514         7.79803         0.24164
C         -2.47159         7.08201        -0.11229
C         -1.17727         7.35109         0.65708
C          0.04305         7.12387        -0.23469
C          1.33605         7.74174         0.16534
C          2.59795         6.97329        -0.12514
C          3.87298         7.73430         0.08172
C          5.15566         6.96922        -0.01200
C          6.45227         7.76595         0.11706
C          7.62483         6.83406         0.31565
C         -5.94884         8.44612         2.01758
C         -4.83169         9.19000         2.05455
C         -3.69674         9.09272         1.05446
C         -2.32277         9.36415         1.64876
C         -1.18630         8.69347         1.37621
C          0.12023         9.03888         2.08051
C          1.38922         8.70488         1.30680
C          2.57063         9.25525         1.67134
C          3.85164         8.92499         0.99897
C          5.14649         9.30320         1.62283
C          6.32359         8.80081         1.21324
C        -11.18339        -0.61145         0.58587
C         -9.95161        -1.41428         0.42103
C         -8.76685        -0.72750        -0.23311
C         -7.66524        -1.56096        -0.86150
C         -6.36913        -0.77287        -1.00072
C         -5.11647        -1.30112        -0.28561
C         -3.82042        -0.62043        -0.72561
C         -2.50688        -1.34426        -0.57610
C         -1.31087        -0.52083        -0.16283
C         -0.00858        -1.18655         0.28973
C          1.28064        -0.39143         0.23407
C          2.59483        -1.15968         0.38401
C          3.90780        -0.47201        -0.00615
C          5.09078        -1.33035        -0.33314
C          6.36036        -0.82029        -0.96250
C          7.61452        -1.55555        -0.61716
C          8.91303        -0.80786        -0.76737
C         10.17171        -1.54118        -0.41516
C         11.35696        -0.71816        -0.09060
C         -9.97594        -2.88354         0.47223
C         -8.79386        -3.59971         0.32396
C         -7.67372        -3.07328        -0.55565
C         -6.28477        -3.60706        -0.32140
C         -5.02581        -2.81249        -0.36350
C         -3.75908        -3.51351         0.00257
C         -2.43645        -2.87766        -0.44902
C         -1.28784        -3.46276         0.36107
C         -0.01854        -2.69083         0.56836
C          1.29454        -3.46555         0.65183
C          2.58337        -2.66132         0.63063
C          3.94723        -3.44165         0.53419
C          4.71409        -2.75748        -0.60399
C          4.90825        -3.31244        -2.01018
C          7.68920        -2.65944         0.43111
C          8.91208        -3.54023         0.41241
C         10.09175        -2.95367         0.06159
C         -8.71483        -4.95989         0.70907
C         -7.54967        -5.73745         0.50799
C         -6.44125        -5.10889        -0.31771
C         -5.07513        -5.85700        -0.30620
C         -3.81199        -5.00310        -0.00235
C         -2.48581        -5.72617        -0.26803
C         -1.26655        -4.97181         0.26054
C          0.02115        -5.73120         0.12153
C          1.32241        -4.95899         0.34142
C          2.59074        -5.60986        -0.15088
C          3.88603        -4.96395         0.30026
C          5.17353        -5.69751         0.04837
C          6.60610        -5.17149        -0.10258
C          7.66915        -5.67019         0.82591
C          8.79210        -4.89179         0.97416
C         -7.54636        -7.11009         0.73700
C         -6.27353        -7.83827         0.88430
C         -5.02551        -7.05392         0.66094
C         -3.70543        -7.78078         0.77202
C         -2.44219        -7.08431         0.42632
C         -1.29818        -7.95168        -0.06655
C         -0.02125        -7.17678        -0.40676
C          1.29428        -7.91362        -0.44884
C          2.57416        -7.07591        -0.53539
C          3.90312        -7.75032        -0.59859
C          5.06391        -7.08001        -0.47284
C          6.62734        -7.92190         0.96291
C          7.44681        -6.95421         1.48984
C         -6.15630        -9.31263         0.78990
C         -4.98425        -9.94993         0.59764
C         -3.63461        -9.30705         0.83300
C         -2.43481        -9.74890        -0.06868
C         -1.11021        -9.31484         0.53156
C          0.05652        -9.98514         0.46826
C          1.38555        -9.40555        -0.00193
C          2.47102        -9.64180         1.04050
C          3.78000        -9.54637         0.69687
C          4.89861        -9.69684         1.63424
C          6.08713        -9.03186         1.74214
O         -4.44936         6.16578        -2.09886
O          0.57864         1.97342         0.57161
O          7.36657         2.23616         0.55320
O         -5.60193        -7.03061         1.98430
O         -2.12229        -8.73873        -1.13667
O          4.54549        -5.68899         1.38193
O         -5.51586        -3.32803        -1.60060
O          5.43267         0.74374        -2.52599
O         -7.04451        -1.36638        -2.14536
O         -3.04419         8.02030        -1.04220
O         -7.24096         1.00609        -2.39486
O         -1.66431         0.53363         0.78369
O          2.65166        -1.71701         1.72668
O          2.50887        -5.99567        -1.54603
O          8.14434         0.95529         0.69152
O          0.56845         8.24970        -0.98149
O          5.09213         5.69306         0.73275
O         -1.88451         4.75635         0.34417
O          3.80313        -2.71350        -1.84172
O         -3.09267        -1.06152        -1.90053
O          6.93520        -2.67800         1.38293
O          2.59695         5.64668         0.50185
O         -5.08760         6.21449         1.54391
O         -6.73237         4.84511        -2.31321
O         -3.79762        -4.25578         1.24585
O          6.92135        -4.47306        -1.05092
O          6.69705         5.76210        -2.46937
O          3.27343         3.00845        -2.78328
O          0.52806        -7.62019        -1.66700
O          0.72186         2.96699        -2.86266
O         -0.97600        -2.93727         1.65534
O          9.74775        -1.31071        -1.83039
O         -2.85547        -7.16176         1.80643
O          4.92264        -0.78443         0.99783
O          3.46275         1.88453         0.51360
O          1.39613        -4.46297         1.70158
O          6.09092         3.19397        -2.63073
O         -7.12160        -5.17182        -1.67600
O         -2.52951         1.83653        -2.60127
O         -0.71056        -5.67158         1.38943
O          4.02568        -9.15572        -0.64357
O         -8.76322        -1.00248         1.20824
O         -7.93705        -3.88975        -1.81061
O          0.52062         5.97603        -2.38991
O         -4.62190         3.35534        -2.88965
O          3.85678         9.06341        -0.47603
O         -4.62597         1.54172         0.28435
O          0.51167        -0.48637         1.45088
O         -8.85288         1.36870         0.97529
O          6.93231        -1.78682        -1.88837
O         -1.13454         6.40255         1.68924
O         -8.78718         3.35961        -2.17614
O          6.26153        -7.82678        -0.39888
O          6.67357         8.43015        -1.15131
H          6.77417         7.72282        -1.83719
O          4.61622        -3.30305         1.76478
H          4.51882        -2.37269         2.07786
O          0.13162        10.40456         2.48333
H          0.24889        10.96263         1.68724
O         -1.34312         4.25994        -3.15660
H         -1.25159         3.50434        -3.77506
O         -5.29216        -0.98282         1.10706
H         -5.14463        -0.01533         1.24674
O          4.12898         5.80376        -2.83458
H          5.10290         5.73153        -3.07389
O         -3.28006        -9.70422         2.17691
H         -2.95709        -8.89456         2.64014
O         -2.28689        -5.93916        -1.66850
H         -3.03328        -6.48344        -2.01279
O         -3.95017        10.18139         0.12507
H         -3.43272         9.98515        -0.68941
O          1.70108       -10.17454        -1.17819
H          1.19242        -9.79172        -1.92528
O          8.20871         1.46348        -2.88088
H          7.46681         1.83004        -3.41501
O         -9.95890         5.60355         0.41529
H        -10.15180         6.55880         0.33530
O         -4.90183        -6.45038        -1.61022
H         -5.38832        -5.89187        -2.26208
O         -2.15205        -3.35988        -1.77724
H         -2.75236        -2.90434        -2.41157
H         12.27808        -1.22700         0.22893
H         12.25874         1.20522        -0.07295
H         11.12893         3.29713        -0.50215
H          9.85868         5.36579        -0.10947
H          8.48335         7.18469         0.91077
H          7.25312         9.14079         1.69559
H          5.11787        10.03888         2.44164
H          2.59871         9.95853         2.51843
H          0.13543         8.42086         3.02155
H         -2.24200        10.28295         2.25396
H         -4.77664        10.03445         2.75844
H         -6.76817         8.65370         2.72349
H         -8.29316         7.04827         1.37356
H         -9.23404         5.72712        -1.53404
H        -11.12054         3.48863        -0.02019
H        -12.18998         1.25290         0.52760
H        -12.10984        -1.15943         0.81359
H        -10.85825        -3.38069         0.90327
H         -9.56880        -5.41111         1.23552
H         -8.46877        -7.59542         1.09355
H         -7.09861        -9.87778         0.71804
H         -4.99061       -11.04175         0.45510
H         -2.51392       -10.78193        -0.47564
H          0.04716       -11.08278         0.55891
H          2.17495        -9.91765         2.06218
H          4.67483       -10.38857         2.46416
H          6.67421        -9.26269         2.64742
H          7.86140        -7.09639         2.49975
H          9.64879        -5.28151         1.54831
H         11.03577        -3.51894         0.12936
