         490
 CSIRO Nanostructure Databank - Neutral Graphene Oxide Data Set
C         38.58165        50.65379        -3.88568
C         37.64404        51.44947        -4.43763
C         38.76644        53.49469        -3.72868
C         37.82735        52.89870        -4.48903
C         40.94184        49.04683        -2.92273
C         40.80363        50.40469        -2.57555
C         39.87790        51.28277        -3.41117
C         40.85612        53.20636        -2.25779
C         39.55801        52.64341        -2.76323
C         41.66785        54.17171        -2.73116
C         42.97160        48.84916        -1.57836
C         41.96909        48.27753        -2.39870
C         42.86470        50.23096        -1.23829
C         41.74279        50.96680        -1.68359
C         42.85451        53.10720        -0.91806
C         41.54412        52.38526        -1.18306
C         42.71140        54.54107        -0.45282
C         42.92350        54.25047        -1.93904
C         45.34598        45.96206        -1.02505
C         44.25580        46.72794        -1.46509
C         44.99606        48.63779        -0.04320
C         44.08668        48.06180        -1.10647
C         45.08483        50.14908        -0.09021
C         43.97976        50.90491        -0.56166
C         45.10550        52.97817         0.16324
C         44.01136        52.31675        -0.45253
C         45.06271        54.40612         0.43555
C         43.87316        55.15210         0.23318
C         44.91290        57.11783         1.21177
C         43.80082        56.48370         0.64778
C         47.66112        44.38502        -0.18276
C         47.60073        45.78841         0.03390
C         46.41681        46.54434        -0.31274
C         47.44275        48.56479         0.60267
C         46.33921        47.92980         0.03187
C         47.32871        49.99166         0.98732
C         46.19781        50.79809         0.46217
C         47.40915        52.90576         1.07180
C         46.22882        52.21526         0.58994
C         47.40243        54.30836         1.23140
C         46.18637        55.05847         1.01725
C         47.30002        57.07212         2.09227
C         46.12004        56.43391         1.37030
C         47.37403        58.56828         1.98966
C         49.92773        44.26640         0.70916
C         48.77389        43.64810         0.15808
C         49.91985        45.68484         0.89746
C         48.72745        46.44374         0.60625
C         49.82214        48.55138         1.32766
C         48.66295        47.85735         0.85217
C         49.86346        49.95328         1.42064
C         48.60066        50.71844         1.36494
C         49.84205        52.87742         1.40197
C         48.63308        52.19171         1.26296
C         49.85365        54.29124         1.52729
C         48.62025        55.00706         1.53520
C         49.82909        57.13833         1.79082
C         48.61102        56.41162         1.74472
C         49.82780        58.57878         1.88831
C         48.55620        59.24059         1.93938
C         52.31794        41.37021         1.11595
C         51.12085        42.09059         1.03637
C         52.25153        44.19547         1.61056
C         51.07097        43.49253         1.11199
C         52.31386        45.65984         1.54854
C         51.10239        46.34869         1.34420
C         52.33194        48.52087         1.95699
C         51.02074        47.77721         1.68505
C         52.30383        49.98182         1.75615
C         51.09495        50.65300         1.56419
C         52.28546        52.82368         2.00482
C         51.15145        52.13855         1.24347
C         52.32495        54.30412         1.72476
C         51.09289        55.02035         1.67124
C         52.33585        57.18927         2.00224
C         51.06197        56.43292         1.72974
C         52.27478        58.64341         1.58537
C         51.06772        59.31179         1.76063
C         52.29995        61.44588         1.94920
C         51.11969        60.76180         1.87454
C         54.87516        39.91385         0.84351
C         54.81589        41.33466         0.97953
C         53.57051        41.99558         1.23374
C         54.84170        44.18489         1.48736
C         53.60787        43.40329         1.63460
C         54.80207        45.58791         1.70076
C         53.57681        46.31418         1.75153
C         54.80255        48.46377         1.79154
C         53.60684        47.76675         1.82120
C         54.79528        49.94114         1.90138
C         53.54865        50.70503         1.77216
C         54.81228        52.82019         1.54132
C         53.58791        52.09626         1.76137
C         54.78970        54.27000         1.45709
C         53.56116        54.99362         1.60650
C         54.74511        57.12133         1.37065
C         53.55425        56.42055         1.57258
C         54.73672        58.56240         1.17571
C         53.47840        59.40975         1.05348
C         54.73350        61.67428         1.70879
C         53.58425        60.86692         1.63241
C         54.85767        62.97230         2.36474
C         57.30495        39.90922         0.59062
C         56.07200        39.23125         0.72549
C         57.25924        41.40620         0.34644
C         56.01681        42.10236         0.88402
C         57.26512        44.29223         0.74044
C         56.02441        43.49302         1.09236
C         57.33183        45.66081         1.37428
C         56.11387        46.28239         2.03735
C         57.26887        48.47057         1.76065
C         56.08215        47.78237         1.81528
C         57.28920        49.88280         1.29849
C         56.07656        50.69718         1.59541
C         57.22292        52.84286         0.88192
C         55.99781        52.12589         1.28260
C         57.27112        54.29965         1.10770
C         56.00388        54.98933         1.28542
C         57.23295        57.12904         1.24312
C         55.96254        56.39809         1.22272
C         57.22233        58.57236         0.95861
C         55.91801        59.12389         0.78787
C         57.25007        61.51788         1.70473
C         56.02084        61.23521         1.18880
C         57.41106        62.81304         2.44794
C         56.07478        63.52085         2.61911
C         59.88357        37.16491         0.57068
C         58.66352        37.82907         0.62868
C         59.77946        40.00025         0.30104
C         58.54841        39.24260         0.49385
C         59.80615        41.36806         0.46051
C         58.54302        42.06202         0.81071
C         59.83943        44.27452         0.87390
C         58.55609        43.53498         1.01102
C         59.79748        45.67214         1.01382
C         58.53407        46.31913         1.36550
C         59.84990        48.51270         1.68907
C         58.56564        47.74313         1.79625
C         59.83074        50.04640         1.70789
C         58.57297        50.60318         1.04905
C         59.79995        52.84074         0.97899
C         58.53987        52.09014         0.82046
C         59.76068        54.26385         0.92838
C         58.49618        54.95365         1.06032
C         59.81243        57.21846         1.09054
C         58.53206        56.41079         1.29575
C         59.60227        58.60892         0.41622
C         58.37303        59.31977         0.91800
C         59.68171        61.49342         0.99178
C         58.51398        60.69316         1.52820
C         59.62709        62.90248         1.07380
C         58.49384        63.59101         1.67073
C         59.33999        65.67345         0.77844
C         58.42028        64.96744         1.58210
C         62.45488        35.74354         0.35993
C         62.34977        37.15861         0.22222
C         61.09411        37.82474         0.27917
C         62.28187        40.03415        -0.02186
C         61.00002        39.26039        -0.18372
C         62.24430        41.43907         0.08793
C         61.03315        42.13834         0.36183
C         62.27935        44.29079         0.40472
C         61.04402        43.54528         0.60532
C         62.33926        45.71689         0.90248
C         61.01857        46.45284         0.95657
C         62.36369        48.55239         1.34114
C         61.05288        47.80707         1.18499
C         62.23942        50.02465         0.98442
C         61.07463        50.71102         1.16094
C         62.24651        52.91312         0.93807
C         61.02515        52.16126         1.01777
C         62.21220        54.34249         0.81071
C         60.97108        54.99729         0.81853
C         62.18109        57.21761         0.48798
C         60.89949        56.43308         0.36727
C         62.10117        58.68473         0.48181
C         60.89327        59.39146         0.51559
C         62.07514        61.59380         0.32917
C         60.86934        60.83029         0.58549
C         62.00517        63.03009         0.29332
C         60.73138        63.64912         0.51149
C         62.26129        65.69379        -1.31950
C         60.43505        65.02734         0.22022
C         62.41900        66.61498        -2.36689
C         64.87899        35.81964         0.01945
C         63.65839        35.09957         0.21193
C         64.82545        37.22799        -0.01533
C         63.56906        37.90319         0.01099
C         64.70706        40.04083        -0.58390
C         63.49873        39.32623        -0.12488
C         64.64640        41.53002        -0.69343
C         63.55658        42.18044         0.14891
C         64.56684        44.42211        -0.66681
C         63.42611        43.67005        -0.01143
C         64.62494        45.90502        -0.30095
C         63.46371        46.54905         0.33242
C         64.78292        48.60421         0.58907
C         63.53507        47.88051         0.65651
C         64.76844        50.07892         0.60744
C         63.46461        50.78668         0.67280
C         64.71577        52.95896         0.80571
C         63.47371        52.24299         0.86946
C         64.67674        54.40948         0.69132
C         63.44121        55.08134         0.63569
C         64.63180        57.29683         0.37678
C         63.37313        56.52799         0.50172
C         64.57780        58.72649         0.84746
C         63.31142        59.45001         0.44573
C         64.62182        61.32043        -0.31374
C         63.29687        60.82148         0.20491
C         64.43543        63.41929         0.75957
C         63.24619        63.85236         0.12904
C         64.66456        65.47957        -1.14551
C         63.36748        64.97257        -0.78264
C         64.82269        66.50085        -2.13674
C         63.68258        66.98450        -2.80381
C         67.34901        33.00781        -0.42376
C         66.17649        33.69980        -0.20757
C         67.36654        35.82341        -0.34349
C         66.13670        35.11588        -0.16065
C         67.37694        37.28563        -0.29058
C         66.11672        38.01777         0.12677
C         67.27784        40.18384        -0.62788
C         66.03922        39.36363        -0.56710
C         67.23421        41.57076        -0.78932
C         65.94321        42.29867        -0.83484
C         67.15531        44.52213        -0.87958
C         65.91432        43.72785        -0.55952
C         67.22151        45.79723        -0.04017
C         65.96054        46.61506        -0.16889
C         67.25803        48.70634         0.32818
C         65.99464        47.97695         0.37891
C         67.26420        50.11635         0.51486
C         66.01567        50.78674         1.07335
C         67.22458        53.00663         1.02386
C         65.93210        52.27681         0.85369
C         67.14715        54.47596         0.72109
C         65.93485        55.12131         0.62376
C         67.14960        57.33893         0.87168
C         65.94159        56.59088         0.46476
C         67.09913        58.78068         0.91427
C         65.87140        59.46391         0.64453
C         67.00049        61.62975         0.69726
C         65.84340        60.83900         0.43045
C         66.96462        63.06635         0.59569
C         65.74313        63.81383         0.32243
C         67.12407        65.52795        -0.77974
C         65.84502        64.92999        -0.54635
C         67.26834        66.62471        -1.68332
C         66.13543        67.05117        -2.43442
C         67.57553        68.60575        -3.63434
C         66.32559        68.03638        -3.42360
C         69.81193        31.55781        -1.00741
C         69.81174        32.95662        -0.81604
C         68.59247        33.68413        -0.58721
C         69.87167        35.86494        -0.53747
C         68.56292        35.11063        -0.55406
C         69.75847        37.32626        -1.02481
C         68.51541        38.02247        -0.52262
C         69.72629        40.21385        -0.63474
C         68.52313        39.48649        -0.55947
C         69.70759        41.63408        -0.74877
C         68.45533        42.32614        -0.79047
C         69.64740        44.47938        -0.71979
C         68.44711        43.74657        -0.75537
C         69.64779        45.92632        -0.52673
C         68.47920        46.61088        -0.26856
C         69.66981        48.80053        -0.21609
C         68.45956        48.04087        -0.03539
C         69.63800        50.23158        -0.13372
C         68.41819        50.86144         0.24012
C         69.60045        53.14532         0.07304
C         68.33989        52.33792         0.24431
C         69.59906        54.54789         0.54373
C         68.40259        55.20865         0.71799
C         69.59270        57.36436         1.08340
C         68.37388        56.65304         0.94538
C         69.52407        58.80069         1.54855
C         68.27336        59.53392         1.09928
C         69.44034        61.71547         1.15499
C         68.23478        60.95851         1.02162
C         69.43174        63.10231         0.89221
C         68.19024        63.75934         0.55019
C         69.48457        65.76595        -0.11074
C         68.25850        65.05893        -0.06001
C         69.66656        66.82956        -1.03801
C         68.54421        67.24437        -1.86399
C         69.97762        68.96713        -3.01926
C         68.68708        68.24992        -2.85063
C         70.30824        69.61768        -4.29397
C         72.13315        31.57889        -1.76416
C         70.94050        30.86846        -1.42608
C         72.22292        32.91887        -1.55346
C         71.15057        33.67396        -0.81067
C         72.27047        35.94321        -1.24281
C         70.99482        35.12666        -1.31486
C         72.28809        37.25946        -0.97866
C         71.05595        38.01889        -0.63383
C         72.25030        40.32510        -0.69000
C         71.03230        39.52205        -0.49775
C         72.18696        41.66187        -0.88129
C         70.92705        42.38284        -0.86340
C         72.06935        44.59371        -1.20572
C         70.89297        43.79101        -0.89522
C         72.08769        45.93418        -1.05081
C         70.97443        46.62520        -0.30792
C         72.05783        48.89830        -0.66166
C         70.90064        48.13137        -0.46727
C         72.03535        50.29008        -0.61359
C         70.84608        51.00860        -0.33124
C         72.02956        53.25626        -0.26385
C         70.86113        52.42955        -0.15725
C         72.04433        54.57512         0.09241
C         70.91990        55.20209         0.87747
C         71.99275        57.51381         0.82272
C         70.84540        56.72634         0.88138
C         71.93688        58.93379         0.96947
C         70.78238        59.58650         1.30756
C         71.94259        61.83756         1.30737
C         70.71060        61.05912         1.65915
C         71.87977        63.17440         1.03192
C         70.63708        63.86311         0.94437
C         71.87246        66.01631         0.59395
C         70.55194        65.37219         0.88193
C         72.03060        66.96369        -0.37015
C         70.94566        67.42453        -1.18302
C         72.50748        68.83808        -2.64608
C         71.16323        68.53651        -2.13466
C         72.68646        69.61458        -3.74733
C         71.57969        70.00457        -4.57956
O         47.63666        50.26149         2.38994
O         64.71768        61.84902        -1.41104
O         64.98417        41.99542        -1.99812
O         57.92157        49.89641        -0.04232
O         65.37763        57.06319        -0.84659
O         52.83632        43.67122         2.83742
O         58.50594        42.62585         2.15908
O         68.61608        52.93753        -1.04124
O         57.91109        56.82941         2.56053
O         64.15493        50.51394        -0.64704
O         59.39817        47.97819         2.99840
O         55.65639        50.43060         2.98843
O         71.07376        38.61933         0.68312
O         70.36108        69.73308        -1.83100
O         51.49463        48.05055         3.05443
O         57.82022        52.43888        -0.40575
O         60.99175        65.73874        -0.81243
O         55.89866        60.34674         0.11185
O         65.22153        46.63027        -1.42995
O         65.26240        39.38330        -1.79214
O         64.45553        58.60956         2.30927
H         64.47032        59.51252         2.69098
O         69.67799        37.41021        -2.48073
H         68.74372        37.27046        -2.74498
O         41.45501        54.99966        -0.02467
H         40.91335        54.20384         0.20124
O         59.74732        50.48191         3.09079
H         59.39981        49.71184         3.60789
O         70.23146        35.97793         0.85698
H         70.69063        35.14629         1.12842
O         67.62338        52.87306         2.44941
H         67.01902        53.43976         2.97573
O         64.20546        44.40182        -2.08591
H         64.75100        45.10914        -2.50841
O         60.82716        39.16066        -1.65213
H         59.95374        38.74308        -1.81102
O         60.36367        57.47302         2.39488
H         59.60788        57.71148         2.98266
O         56.29813        46.06420         3.47084
H         55.50362        46.40789         3.93153
O         66.07312        50.56940         2.52196
H         66.79891        51.15014         2.85807
O         70.62942        34.97252        -2.70104
H         70.46385        35.87778        -3.06105
O         57.23517        44.50373        -0.70552
H         56.42399        45.00682        -0.92586
O         67.04215        44.90961        -2.28212
H         66.89005        44.09386        -2.80583
O         66.24565        38.32448         1.54951
H         66.51397        37.50454         2.01473
O         44.32783        48.34075         1.23786
H         44.27229        47.36468         1.31608
O         70.11967        65.83004         2.22179
H         69.99548        66.80153         2.17090
O         67.27262        45.34960         1.34450
H         67.46490        46.12392         1.91438
O         53.21999        59.60189        -0.37303
H         54.02925        60.02045        -0.74648
O         40.76483        52.34561         0.03982
H         39.85429        52.06131        -0.22532
O         52.43507        57.25521         3.49066
H         52.30986        56.34233         3.82886
O         71.61101        33.72491         0.58937
H         71.67342        32.79933         0.90810
O         58.93044        60.29487         2.89160
H         58.68687        61.03417         3.50444
O         71.18477        54.83985         2.28397
H         70.52981        55.31775         2.83696
O         57.23547        41.57029        -1.10729
H         56.42290        41.13666        -1.44209
O         47.08256        56.77722         3.52322
H         47.03966        55.80123         3.61608
O         62.66876        48.48597         2.77909
H         61.90208        48.86318         3.26479
O         70.60699        61.11058         3.15070
H         70.53713        62.05868         3.39780
O         51.97563        52.68251         3.42470
H         52.80137        52.81648         3.93514
O         64.07350        41.99966         1.51921
H         63.47857        42.48338         2.13282
O         71.27221        46.42766         1.12686
H         71.29203        45.45938         1.28560
O         59.28790        58.50068        -0.99852
H         59.93579        57.88757        -1.42393
O         51.49780        52.23569        -0.17084
H         50.74625        51.89197        -0.69693
O         40.65802        51.59183        -4.60366
H         40.88564        50.74547        -5.04174
O         57.92691        62.60079         3.80206
H         58.16076        63.47535         4.17748
O         64.36570        62.62046         1.87058
H         63.42600        62.46401         2.10069
O         60.60015        56.31123        -1.06405
H         61.31767        55.78120        -1.47262
O         62.70655        45.53980         2.32251
H         62.70981        46.43858         2.73571
O         38.68122        52.37629        -1.62322
H         38.19870        53.20366        -1.41572
O         69.36379        58.70005         3.02245
H         69.70121        59.55251         3.39934
H         38.44625        49.56207        -3.86774
H         36.72458        51.02388        -4.86620
H         38.89543        54.58750        -3.72620
H         37.17329        53.48778        -5.14859
H         40.22815        48.58053        -3.61751
H         41.44269        54.85219        -3.56249
H         42.01470        47.21492        -2.67042
H         43.87290        54.54511        -2.41321
H         45.39127        44.91014        -1.33383
H         43.53509        46.23834        -2.13459
H         44.82150        58.16653         1.52463
H         42.85791        57.03218         0.52048
H         46.79760        43.85834        -0.60939
H         46.44082        59.14487         2.05742
H         48.76157        42.56283        -0.00798
H         48.52724        60.33951         1.92246
H         52.26680        40.28682         0.94075
H         50.20654        41.52736         0.80419
H         52.26099        62.51930         2.18832
H         50.18804        61.31659         2.05241
H         53.95028        39.32948         0.93441
H         53.95466        63.52474         2.66648
H         56.04809        38.13272         0.75086
H         56.10073        64.48507         3.15233
H         59.88606        36.08574         0.78017
H         57.76584        37.23408         0.84360
H         59.15787        66.72658         0.53008
H         57.58343        65.51407         2.03797
H         61.55346        35.14119         0.53479
H         61.52286        67.09114        -2.78514
H         63.67014        34.00422         0.27727
H         63.76775        67.71942        -3.61337
H         67.30681        31.91129        -0.44612
H         65.25548        33.11771        -0.07682
H         67.67401        69.38757        -4.39964
H         65.48674        68.38222        -4.04099
H         68.88035        30.98781        -0.88493
H         69.51417        69.77477        -5.03793
H         72.96590        31.03232        -2.23018
H         70.89267        29.78268        -1.58408
H         73.14437        33.45299        -1.82534
H         73.22157        35.43793        -1.47116
H         73.25207        37.79025        -0.94426
H         73.22609        39.82234        -0.63930
H         73.12038        42.22949        -0.99816
H         72.93765        44.09459        -1.66030
H         72.98196        46.49934        -1.34955
H         73.02270        48.40190        -0.83487
H         72.97652        50.83475        -0.76930
H         72.94716        52.82257        -0.69019
H         72.96667        55.15354        -0.06375
H         72.97578        57.05174         0.65918
H         72.87620        59.49028         0.84107
H         72.92340        61.37113         1.47052
H         72.81757        63.73397         0.90676
H         72.71716        65.78471         1.25882
H         73.01677        67.43544        -0.48729
H         73.38495        68.41298        -2.13863
H         73.70388        69.85522        -4.08702
H         71.79507        70.52358        -5.52435
