         349
 CSIRO Nanostructure Databank - Neutral Graphene Oxide Data Set
C          1.34804         3.26431        -0.47907
C          0.16367         3.90368        -0.13613
C          1.23196         6.09734        -0.31792
C          0.10094         5.29848        -0.04411
C          1.19177         7.56373        -0.21829
C          0.03337         8.22828         0.14601
C          1.15686        10.39510         0.17273
C          0.02278         9.62893         0.34843
C          1.08904        11.85255         0.55639
C          0.08971        12.63028        -0.28428
C          1.18361        14.77159         0.22925
C          0.13851        13.98885        -0.36852
C          1.14464        16.18383         0.28122
C          0.07789        16.93570        -0.24871
C          1.15179        19.12003         0.10556
C          0.10284        18.34624        -0.34542
C          1.18733        20.59248        -0.23954
C         -0.05375        21.33607         0.16990
C          1.20495        23.43979         0.12619
C         -0.03214        22.68553         0.21927
C          1.11679        24.92061         0.21466
C          0.00598        25.63072        -0.43089
C          1.24481        27.74960        -0.41215
C          0.04550        26.97768        -0.62545
C          1.27916        29.14120        -0.73042
C          3.75851         3.36911        -1.00343
C          2.51313         4.02506        -0.75423
C          3.60248         6.25178        -1.05382
C          2.42949         5.44656        -0.68998
C          3.58188         7.70062        -0.77751
C          2.39527         8.34474        -0.46208
C          3.52707        10.58415        -0.47324
C          2.37878         9.79181        -0.27871
C          3.53348        11.97997        -0.05613
C          2.40894        12.57482         0.45314
C          3.65057        14.76594         0.70373
C          2.34406        14.02616         0.87241
C          3.61577        16.21975         0.98858
C          2.30652        16.94606         0.83129
C          3.62800        19.22664         0.69944
C          2.32038        18.46178         0.71407
C          3.63354        20.65777         0.31579
C          2.45945        21.33378         0.14393
C          3.68679        23.51300         0.40188
C          2.43038        22.79183         0.14696
C          3.69068        24.95770         0.47367
C          2.42056        25.69745         0.39885
C          3.67260        27.79811        -0.05362
C          2.43985        27.10337        -0.03494
C          3.68932        29.19642        -0.36087
C          2.45721        29.84634        -0.68863
C          6.21211         3.42955        -1.20973
C          4.96375         4.06824        -1.16841
C          6.18656         6.29251        -1.16712
C          4.91603         5.54284        -1.30667
C          6.09850         7.75104        -0.76438
C          4.79507         8.45907        -1.12701
C          6.06115        10.75083        -1.11732
C          4.74385         9.98223        -1.04867
C          6.07088        12.21622        -0.72933
C          4.77682        12.79634        -0.22545
C          6.12143        14.75850         0.79595
C          4.82036        14.11671         0.46280
C          6.15699        16.25581         0.91906
C          4.87353        16.97376         0.66872
C          6.20140        19.16516         0.71145
C          4.90837        18.46087         0.55085
C          6.10616        20.65629         0.96363
C          4.96622        21.35404         0.18813
C          6.08036        23.54472         1.10301
C          4.87672        22.82215         0.54466
C          6.13621        25.00641         0.73792
C          4.90140        25.68118         0.50710
C          6.08700        27.84120         0.33460
C          4.89313        27.12000         0.27334
C          6.11477        29.23800        -0.00141
C          4.91165        29.89065        -0.34349
C          8.65580         3.48975        -1.18014
C          7.44331         4.15951        -1.23284
C          8.68502         6.38699        -1.17066
C          7.37553         5.63010        -1.17286
C          8.57616         7.85229        -0.79337
C          7.38569         8.51500        -0.96918
C          8.67734        10.71601        -0.98397
C          7.36697         9.98766        -1.12470
C          8.62175        12.24723        -0.64503
C          7.35055        12.87318        -0.37085
C          8.64060        14.87181         0.47495
C          7.41704        13.97028         0.67224
C          8.61653        16.27892         0.67496
C          7.42212        17.00763         0.76814
C          8.68676        19.16272         0.76734
C          7.40250        18.45703         0.76465
C          8.69109        20.63148         0.59067
C          7.39433        21.39178         0.63365
C          8.58335        23.55403         0.94887
C          7.39948        22.85139         0.86908
C          8.58992        24.99931         1.04810
C          7.36201        25.69928         0.88672
C          8.61161        27.96804         0.75658
C          7.31392        27.18322         0.82700
C          8.58709        29.28541         0.08016
C          7.35690        29.92152        -0.13490
C         11.07236         3.45944        -0.36716
C          9.97895         4.20798        -1.08033
C         10.97972         6.31979         0.00468
C          9.71248         5.56189        -0.36428
C         11.01194         7.81328        -0.10658
C          9.81588         8.56684        -0.56760
C         11.11705        10.64372        -0.31690
C          9.87570         9.94864        -0.58225
C         11.11956        12.11834        -0.42623
C          9.86886        12.86038        -0.19025
C         11.14579        14.91622         0.24552
C          9.87907        14.19799         0.21171
C         11.09491        16.38629         0.25983
C          9.92063        17.00208         0.97267
C         11.16567        19.22257         0.82190
C          9.89637        18.50408         0.80397
C         11.14206        20.67256         1.01415
C          9.93368        21.35510         0.90829
C         11.18293        23.55022         1.17683
C          9.85328        22.79791         1.15560
C         11.15702        24.98204         0.84255
C          9.88819        25.70841         1.11492
C         11.08905        27.79468         0.19000
C          9.91234        27.23102         0.85898
C         11.01923        29.12316        -0.33539
C          9.79547        29.85033        -0.34851
C         13.46912         3.43937         0.20176
C         12.24690         4.14542        -0.02895
C         13.44321         6.26322         0.43752
C         12.26346         5.57825         0.10281
C         13.31180         7.73231         0.87882
C         12.38831         8.46970        -0.17525
C         13.49917        10.69484         0.30392
C         12.30111         9.97147        -0.04479
C         13.55512        12.06736         0.30783
C         12.41506        12.84840        -0.15237
C         13.62299        15.01215         0.23338
C         12.36323        14.28845         0.15615
C         13.64261        16.39216         0.18515
C         12.38082        17.15188         0.17817
C         13.66250        19.21120         0.77714
C         12.38798        18.56369         0.63037
C         13.66992        20.61558         1.34190
C         12.39246        21.39066         1.10896
C         13.65392        23.50983         0.82213
C         12.42288        22.77814         1.02305
C         13.59826        24.91065         0.44317
C         12.31147        25.62251         0.44485
C         13.42848        27.65297        -0.47605
C         12.28538        27.03810         0.06418
C         13.39739        29.01572        -0.89004
C         12.18924        29.72072        -0.85562
C         15.92711         3.34632         0.68858
C         14.65254         4.12209         0.44056
C         15.93969         6.22605         0.82861
C         14.64989         5.53721         0.56152
C         15.96594         7.71129         0.98662
C         14.67053         8.48628         1.00167
C         15.99278        10.62005         0.36005
C         14.71457         9.94781         0.72952
C         15.99531        12.00882         0.40654
C         14.77412        12.79223         0.82448
C         16.06629        14.93838         0.49650
C         14.85783        14.26440         0.41247
C         16.16298        16.37243         0.38787
C         14.92575        17.15517        -0.00823
C         16.14416        19.22599         0.76792
C         14.87287        18.55512         0.57447
C         16.13141        20.67935         0.90095
C         14.91519        21.37403         0.95430
C         16.12956        23.52034         0.64474
C         14.86701        22.79376         0.81519
C         16.07323        24.99695         0.25821
C         14.74960        25.57697         0.03807
C         15.93018        27.75068        -0.44697
C         14.69701        26.87595        -0.72753
C         15.84098        29.06332        -1.20428
C         14.60380        29.65805        -1.35163
C         18.37714         3.42745         0.07037
C         17.17939         4.12809         0.36588
C         18.40711         6.25338         0.29090
C         17.19340         5.51612         0.46550
C         18.45471         7.68002         0.36747
C         17.26808         8.51391         0.81594
C         18.37110        10.52988        -0.35784
C         17.13378         9.83501         0.05653
C         18.39993        12.03793        -0.36967
C         17.20631        12.77816         0.10976
C         18.58745        14.83972         0.52731
C         17.30353        14.11346         0.81741
C         18.60790        16.27213         1.04678
C         17.35492        17.05961         0.61226
C         18.62428        19.20195         1.16183
C         17.34877        18.49834         0.71249
C         18.65976        20.69529         0.80146
C         17.36319        21.40924         0.67584
C         18.45880        23.39130        -0.42542
C         17.35568        22.75427         0.39056
C         18.46617        24.90360        -0.49072
C         17.28120        25.62558        -0.34997
C         18.35503        27.66795        -1.18156
C         17.22035        27.00191        -0.70117
C         18.27063        29.05335        -1.60238
C         17.03016        29.70258        -1.63690
C         19.56001         4.11050        -0.11111
C         20.82393         6.23224        -0.18678
C         19.60350         5.52828        -0.00477
C         20.84667         7.60869        -0.13736
C         19.66056         8.34117         0.12962
C         20.80638        10.64171         0.39617
C         19.68488         9.81701        -0.10985
C         20.81145        11.98406         0.33079
C         19.74980        12.74284        -0.43373
C         20.88937        14.95362        -0.28863
C         19.67150        14.20975        -0.00321
C         21.00234        16.25742         0.01837
C         19.93313        16.98453         0.74038
C         21.00782        19.20980         0.03557
C         19.93646        18.48880         0.76576
C         21.02226        20.53703        -0.14554
C         19.89661        21.38435         0.29716
C         20.93669        23.48521        -0.55758
C         19.81396        22.77598        -0.22059
C         20.86565        24.84375        -0.96962
C         19.66787        25.56457        -0.92696
C         20.73959        27.68407        -1.71419
C         19.61574        26.97763        -1.27585
C         20.65739        29.04325        -2.08297
C         19.45323        29.71566        -2.04286
O          4.84443        17.58728        -0.65823
O          2.86657        19.06086         1.93906
O         14.69278         9.44588         2.10956
O         10.72744         7.17770         1.18376
O         17.51039        12.70226        -1.33914
O         20.47658        17.71544         1.89008
O         16.32140        24.59109         1.64788
O         10.47777        23.21374         2.42087
O          2.81355        16.56382         2.16378
O          1.50319        25.44405         1.52673
O          6.07395        15.41915         2.12567
O          7.85329        27.90118         1.99557
O          8.00209        21.05056        -0.65565
O          8.86344        11.68601        -2.00263
O         19.58384        21.36148         1.74667
O          4.59345         9.24864        -2.31772
O         11.49679        16.97344        -1.01277
O         19.18981        10.02941        -1.47800
O         12.71421         7.73093         2.11992
O          4.09666         5.98798        -2.43958
O         11.97480        12.58049        -1.53643
O          5.17230        12.98047        -1.63828
O         10.10272        26.68078         2.19089
O          6.72189        10.44620        -2.36849
O         16.03517         6.84604         2.16910
O          9.05701         5.21828         0.87955
H          9.41296         5.81558         1.57774
O         13.74663        20.43501         2.80133
H         13.73320        21.32646         3.21099
O         10.53308         4.36736        -2.41460
H          9.95299         4.98588        -2.92023
O         15.88821        28.06581         0.96865
H         16.69944        28.56415         1.19879
O          5.96877         7.69628         0.70866
H          6.70544         7.15203         1.06373
O          1.19404        20.63059        -1.71883
H          1.02733        21.55906        -1.98793
O         12.98892         8.19391        -1.46515
H         12.60658         8.80202        -2.13286
O         15.97057         2.97457         2.08218
H         15.97374         3.79827         2.61398
O         20.16341        12.74106        -1.82206
H         19.34469        12.80256        -2.36261
O         15.03529        17.33964        -1.47152
H         14.13382        17.51835        -1.81749
O          5.80131        20.82463         2.36380
H          6.50564        20.41377         2.90530
O         10.17971        16.74077         2.38974
H          9.39266        17.02028         2.90295
O          2.10140        14.02447         2.32151
H          2.20870        14.96409         2.62938
O          7.62239        13.28718         1.95897
H          7.31324        13.90747         2.65861
O          5.33676        21.27164        -1.21777
H          4.57051        21.55382        -1.75908
O         18.53722        19.13895         2.61093
H         19.18229        19.79838         2.95724
O         17.28164        13.79161         2.24346
H         17.61627        14.59889         2.71472
O         14.74493        26.54990        -2.14992
H         13.92889        26.05765        -2.37798
O         18.07636        22.98706        -1.81576
H         18.68182        23.45913        -2.42820
O         18.48867        16.18371         2.49660
H         18.70890        17.08600         2.84531
O          9.11575         6.49720        -2.56571
H          8.40066         6.94474        -3.06752
O          0.58378        11.87585         1.92049
H          0.91668        12.70371         2.34973
O          5.88469        23.54756         2.57315
H          6.55534        24.15361         2.95663
O         17.59832         8.99523         2.15809
H         16.74399         9.13926         2.63211
O         14.70774        12.78940         2.27850
H         15.58629        13.11712         2.60188
H          1.39384         2.16747        -0.53314
H         -0.73632         3.30946         0.07501
H         -0.85393         5.76211         0.23608
H         -0.89748         7.67491         0.32735
H         -0.90057        10.10872         0.70069
H         -0.74239        12.08327        -0.75345
H         -0.66153        14.50752        -0.91790
H         -0.80037        16.41666        -0.65388
H         -0.74412        18.84007        -0.84327
H         -0.99187        20.78194         0.31634
H         -0.95482        23.24228         0.43844
H         -0.86250        25.05121        -0.77727
H         -0.82188        27.48945        -1.06853
H          0.34219        29.64377        -1.01108
H          3.78355         2.26931        -0.96916
H          2.47059        30.92078        -0.92157
H          6.25414         2.33129        -1.15357
H          4.93408        30.95882        -0.60474
H          8.65431         2.38907        -1.21813
H          7.35243        30.93672        -0.55931
H         11.07073         2.35836        -0.37301
H          9.78894        30.85917        -0.78674
H         13.47372         2.34210         0.12764
H         12.14957        30.75848        -1.21694
H         15.91120         2.39132         0.10501
H         14.52673        30.66175        -1.79728
H         18.35134         2.33072         0.00046
H         16.96634        30.71746        -2.05886
H         20.48791         3.56518        -0.33593
H         21.74282         5.66716        -0.39878
H         21.78235         8.15409        -0.32438
H         21.60741        10.11753         0.93971
H         21.64610        12.55133         0.76925
H         21.70952        14.42245        -0.79021
H         21.94955        16.77688        -0.17591
H         21.86972        18.62537        -0.31211
H         21.85916        21.00326        -0.68394
H         21.93127        23.02295        -0.48190
H         21.80143        25.33870        -1.25896
H         21.71638        27.18713        -1.78519
H         21.56577        29.56099        -2.42098
H         19.39053        30.76830        -2.35355
