         429
 CSIRO Nanostructure Databank - Neutral Graphene Oxide Data Set
C          1.26151         3.42400        -0.80384
C          0.05264         4.09100        -0.94624
C          1.16695         6.25238        -0.68902
C          0.00077         5.48845        -0.88145
C          1.12430         7.70681        -0.62487
C         -0.05549         8.43088        -0.57740
C          1.06693        10.54296         0.00090
C         -0.08374         9.80888        -0.24884
C          1.04022        11.85614         0.61839
C         -0.10143        12.33735         1.22147
C          0.96126        14.42085         1.86341
C         -0.13167        13.59923         1.87966
C          1.06487        16.71834         1.80603
C         -0.14523        17.36994         1.48919
C          1.13278        19.19135         0.52864
C         -0.10653        18.56244         0.79615
C          1.13545        20.57687         0.16139
C          0.01861        21.25861        -0.29763
C          1.14361        23.43322        -0.12471
C          0.01457        22.66342        -0.41463
C          1.06650        24.91323        -0.07719
C         -0.07893        25.64879        -0.62271
C          1.15812        27.77879        -0.57926
C         -0.04508        27.00293        -0.74864
C          1.13009        29.20270        -0.82151
C         -0.03358        29.96826        -0.85703
C          1.12453        32.14775        -0.90026
C         -0.03685        31.38681        -0.90078
C          1.15110        33.61097        -0.84602
C         -0.03577        34.38740        -0.86475
C          1.24237        36.46671        -0.77174
C          0.01102        35.77425        -0.82366
C          1.29968        37.90199        -0.59185
C          3.69842         3.46884        -0.43423
C          2.45823         4.15290        -0.59491
C          3.63995         6.31269        -0.32695
C          2.41760         5.58011        -0.55194
C          3.64625         7.72815        -0.32316
C          2.39699         8.44442        -0.62112
C          3.60852        10.62732         0.11589
C          2.36744         9.96454        -0.34593
C          3.57980        11.98226         0.49402
C          2.27236        12.68788         0.57021
C          3.49113        14.82608         1.53467
C          2.21706        14.09512         1.15885
C          3.54605        16.37043         1.56233
C          2.30734        17.17155         1.36161
C          3.62438        19.14124         0.63636
C          2.37435        18.49868         0.81051
C          3.60862        20.54731         0.02843
C          2.39171        21.32480         0.53168
C          3.60216        23.49073         0.23202
C          2.38627        22.79446         0.16749
C          3.64707        24.92613         0.06257
C          2.37978        25.69126         0.04664
C          3.63761        27.80690        -0.38337
C          2.38939        27.11933        -0.34002
C          3.67797        29.20442        -0.66102
C          2.41469        29.88834        -1.01912
C          3.67150        32.09020        -0.70041
C          2.39591        31.41392        -1.04578
C          3.66294        33.57574        -0.67828
C          2.38584        34.31021        -0.84063
C          3.73163        36.40985        -0.66058
C          2.44578        35.72227        -0.81591
C          3.75405        37.86544        -0.43879
C          2.47758        38.55748        -0.40430
C          6.13165         3.46591        -0.08351
C          4.87993         4.15509        -0.17080
C          6.03914         6.31412         0.17535
C          4.85576         5.60366        -0.08405
C          6.04444         7.72733         0.14912
C          4.83301         8.45432        -0.05697
C          6.04270        10.57725         0.41444
C          4.82688         9.89188         0.13073
C          6.02194        11.98524         0.70270
C          4.78230        12.65610         0.83593
C          6.08773        14.82363         1.34713
C          4.77574        14.03824         1.37502
C          6.02030        16.31193         1.28037
C          4.84996        17.04796         1.30033
C          6.08219        19.18372         0.82987
C          4.86761        18.48271         0.94998
C          6.14392        20.53308         0.12809
C          4.87144        21.34057         0.26347
C          6.10878        23.46713         0.47738
C          4.84254        22.70950         0.33146
C          6.11873        24.96102         0.26012
C          4.84104        25.64197        -0.03247
C          6.11457        27.73763        -0.30729
C          4.87847        27.06847        -0.22235
C          6.13949        29.23487        -0.15506
C          4.88927        29.92126        -0.64213
C          6.16242        32.03180        -0.84627
C          4.94199        31.33289        -0.81860
C          6.19039        33.50604        -1.03661
C          4.88919        34.29151        -1.18882
C          6.14142        36.38934        -0.12568
C          4.91413        35.71606        -0.68617
C          6.26515        37.84086        -0.59267
C          4.94230        38.54931        -0.37157
C          8.56229         3.45354         0.20303
C          7.31905         4.12804         0.20676
C          8.53786         6.32420         0.42436
C          7.25742         5.56948         0.66670
C          8.52564         7.68193         0.33535
C          7.28080         8.44980         0.30610
C          8.57332        10.57492         0.64782
C          7.27290         9.83641         0.41667
C          8.48126        12.03098         0.24270
C          7.26027        12.75450         0.69162
C          8.51384        14.93122         0.44984
C          7.29515        14.11645         0.85505
C          8.58930        16.24973         1.20983
C          7.30839        17.01627         1.37883
C          8.66688        19.17596         0.97244
C          7.34507        18.54222         1.23194
C          8.62475        20.64355         0.81534
C          7.37994        21.33535         0.43302
C          8.59091        23.48376         0.19118
C          7.38115        22.72364         0.35872
C          8.57363        24.85384        -0.11261
C          7.38044        25.62995        -0.11326
C          8.57575        27.76301        -0.62332
C          7.36410        27.02808        -0.36129
C          8.59401        29.16960        -0.72672
C          7.40423        29.91566        -0.60865
C          8.66275        32.03778        -0.70430
C          7.40755        31.32534        -0.76724
C          8.67768        33.43125        -0.41583
C          7.45880        34.22504        -0.67096
C          8.57603        36.26145         0.16499
C          7.44400        35.64561        -0.27323
C          8.60298        37.71761         0.39117
C          7.47528        38.47887         0.04646
C         11.01666         3.42001         0.31555
C          9.79626         4.10750         0.37072
C         11.05612         6.25130         0.09043
C          9.83322         5.58704         0.68635
C         10.94362         7.68019        -0.40246
C          9.84210         8.41567         0.37350
C         11.03089        10.58682         0.04091
C          9.70548         9.86374        -0.11357
C         11.05817        11.95778         0.15644
C          9.79298        12.74286         0.11025
C         11.04906        14.81724         0.45034
C          9.83855        14.18101         0.41940
C         11.13459        16.25220         0.81056
C          9.88311        17.00678         1.15578
C         11.13467        19.15163         0.63829
C          9.87321        18.48771         0.97323
C         11.22947        20.65305         0.80772
C          9.90112        21.40008         0.72063
C         11.13207        23.45278        -0.03755
C          9.83929        22.68204        -0.09124
C         11.11566        24.87506        -0.30449
C          9.81830        25.51330        -0.57864
C         11.11975        27.70635        -0.78734
C          9.82232        27.00671        -0.84398
C         11.15729        29.13580        -1.13813
C          9.84776        29.89600        -1.08806
C         11.11490        32.03445        -0.58790
C          9.90326        31.35042        -0.79689
C         11.10367        33.37984        -0.08916
C          9.85579        34.07340        -0.04607
C         10.97557        36.08224         1.11178
C          9.77854        35.45452         0.48516
C         10.97022        37.58375         1.43554
C          9.77130        38.31651         0.89214
C         13.49338         3.45228         0.21223
C         12.26565         4.10834         0.22801
C         13.45719         6.21781        -0.49049
C         12.21700         5.55040        -0.02331
C         13.47304         7.72221        -0.56338
C         12.23421         8.46242        -0.27306
C         13.57263        10.50553         0.23779
C         12.25613         9.81311        -0.05571
C         13.54154        11.99292        -0.00332
C         12.32094        12.68194         0.15253
C         13.51874        14.79588        -0.00730
C         12.30848        14.10389         0.20363
C         13.49074        16.26176        -0.17722
C         12.36953        17.00367         0.46495
C         13.57561        19.13493         0.05487
C         12.32002        18.47762         0.35060
C         13.56981        20.57375        -0.24912
C         12.28089        21.29072        -0.07241
C         13.54567        23.42210        -0.62100
C         12.30415        22.75804        -0.08755
C         13.58889        24.84821        -0.12216
C         12.29425        25.57759        -0.39991
C         13.57550        27.66736        -0.80409
C         12.30288        27.00575        -0.60459
C         13.65830        29.14322        -0.46629
C         12.45879        29.88840        -1.03804
C         13.64502        32.02181        -0.24862
C         12.42239        31.36941        -0.76139
C         13.56555        33.37724         0.15491
C         12.30504        34.03283         0.29180
C         13.48161        36.19548         0.68979
C         12.31022        35.33192         1.09004
C         13.39442        37.62166         0.65953
C         12.19886        38.28672         0.94087
C         15.97295         3.46179         0.09284
C         14.74178         4.14133         0.01006
C         15.95332         6.24073        -0.47204
C         14.74701         5.53037        -0.30765
C         15.96920         7.68416        -0.62383
C         14.76540         8.42595        -0.50291
C         15.99571        10.52761        -0.54099
C         14.78725         9.81523        -0.33677
C         16.00004        11.98094        -0.42048
C         14.76078        12.69044        -0.18277
C         15.99915        14.84499        -0.31637
C         14.75165        14.11698        -0.20035
C         16.04110        16.26178        -0.31681
C         14.77973        17.00707        -0.34404
C         16.04227        19.15411        -0.19668
C         14.78490        18.46092        -0.11077
C         16.06647        20.58794        -0.19849
C         14.84693        21.31506        -0.28343
C         16.06505        23.45179        -0.27177
C         14.85067        22.71073        -0.34067
C         16.04868        24.88592        -0.48112
C         14.81205        25.52107        -0.68468
C         16.51365        27.93427        -0.80497
C         14.65674        26.85855        -1.11701
C         16.24463        29.31471        -0.44132
C         14.98115        29.91831        -0.53554
C         16.08967        32.06695         0.04143
C         14.89378        31.33061        -0.24458
C         16.03144        33.48074         0.25439
C         14.77867        34.12427         0.35656
C         15.92847        36.30808         0.37711
C         14.71883        35.55134         0.49213
C         15.84666        37.75109         0.39427
C         14.61220        38.37149         0.46025
C         18.44551         3.44031        -0.03781
C         17.19087         4.13804        -0.10894
C         18.43013         6.24237        -0.53740
C         17.19296         5.54224        -0.37339
C         18.44909         7.65302        -0.76888
C         17.19451         8.38690        -0.75449
C         18.41623        10.52892        -1.20579
C         17.17850         9.80280        -0.84320
C         18.43544        12.01706        -0.93917
C         17.19190        12.69838        -0.52700
C         18.47089        14.82926        -0.42105
C         17.22745        14.12672        -0.40304
C         18.49341        16.25434        -0.32833
C         17.25821        16.97968        -0.29288
C         18.50922        19.13460        -0.24279
C         17.26364        18.42584        -0.24965
C         18.53171        20.57136        -0.19978
C         17.30026        21.30081        -0.18530
C         18.55226        23.42101        -0.06873
C         17.30345        22.73298        -0.15719
C         18.54935        24.88005         0.18217
C         17.27865        25.64814        -0.12076
C         18.49987        27.78594         0.64760
C         17.41152        27.12936        -0.18011
C         18.58967        29.27933         0.34857
C         17.40543        30.00698         0.03007
C         18.55878        32.13981         0.40255
C         17.35092        31.41543         0.15006
C         18.52151        33.56427         0.42188
C         17.24409        34.24103         0.33341
C         18.43659        36.43604         0.07372
C         17.17364        35.64906         0.31433
C         18.30712        37.89350         0.45994
C         17.08279        38.50643         0.46396
C         19.62738         4.10174        -0.22075
C         20.87017         6.19987        -0.67518
C         19.65438         5.51505        -0.47408
C         20.87492         7.56610        -0.92639
C         19.68144         8.31230        -0.94993
C         20.88237        10.52724        -0.68407
C         19.74880         9.77590        -1.35219
C         20.88141        11.87350        -0.49144
C         19.71510        12.69605        -0.65598
C         20.93263        14.83476        -0.34012
C         19.71545        14.09321        -0.46048
C         20.93909        16.20732        -0.27387
C         19.73253        16.96647        -0.29033
C         20.95497        19.14667        -0.26147
C         19.73953        18.40651        -0.26203
C         20.97190        20.52536        -0.23435
C         19.77007        21.28235        -0.19632
C         20.99125        23.49872        -0.05391
C         19.77260        22.72618        -0.11599
C         21.01616        24.86348         0.09347
C         19.82360        25.65110         0.23499
C         21.00683        27.82099         0.60313
C         19.81568        27.03659         0.44759
C         20.99011        29.18954         0.73693
C         19.78580        29.97172         0.57864
C         20.96139        32.19106         0.76277
C         19.78712        31.42558         0.56725
C         20.92650        33.57894         0.78386
C         19.72273        34.30042         0.60725
C         20.76892        36.53691         0.93239
C         19.68470        35.76037         0.61094
C         20.70010        37.97366         0.93410
C         19.52146        38.62979         0.71912
O          8.93789        12.42613        -1.07880
O          2.11994        13.88467        -0.28760
O          9.71805        26.02474        -1.95373
O          7.09714        33.97289        -2.10068
O          3.48308        15.55006         2.77911
O         12.60154        20.77290        -1.40434
O         15.71985        27.41710        -1.82828
O          1.53207        25.42986         1.21895
O         13.32216         6.89641        -1.79899
O         12.17238        16.51002         1.83425
O         10.41961        29.45672        -2.36255
O          5.59353        14.19651         2.57351
O          2.50478        30.64395        -2.28204
O          7.31098        17.88959         2.54241
O         17.62686        25.22486         1.28208
O         12.69069        30.78991        -2.12415
O          9.23026        21.40252         1.99660
O         18.26025        11.47099        -2.32331
O         13.88715        16.68926        -1.50847
O          2.49316         9.43335        -1.70016
O          9.38737        16.38328         2.40498
O          0.92352        15.57857         2.62353
O          3.69434        32.84083         0.58298
O          6.12899        24.38258         1.62859
O         10.01089        35.40384         1.98462
O         13.38277        23.42819        -2.06356
H         13.16521        22.50081        -2.32500
O         18.61284        36.43534        -1.39211
H         19.41647        36.96378        -1.58474
O         13.74348        10.36499         1.69938
H         12.95887        10.77111         2.12688
O          8.26946        15.32374        -0.94117
H          8.32534        14.49672        -1.47674
O          2.48092        21.28786         1.98881
H          1.81593        21.91005         2.35133
O         18.16246        27.71803         2.06452
H         17.99070        26.76205         2.25509
O          5.92377        36.42072         1.32054
H          5.10244        36.93205         1.48678
O          9.29907         9.86565        -1.49072
H          9.82767         9.18627        -1.97627
O          7.11820         5.50872         2.13204
H          8.02047         5.35926         2.49900
O          4.63208        34.37814        -2.62051
H          5.49486        34.59200        -3.04647
O         11.74176        20.86939         2.15144
H         10.96194        20.85119         2.75571
O         12.57203        34.91986         2.46859
H         11.69735        34.68169         2.85290
O          6.51036        37.82449        -2.03399
H          6.53100        38.75235        -2.34803
O          6.25036        20.18142        -1.32598
H          6.67127        20.93974        -1.78699
O         20.09684         9.75501        -2.76643
H         19.67827        10.55815        -3.16056
O          9.71039        22.22573        -1.48207
H          9.88157        22.99401        -2.06896
O         10.00793         5.67923         2.16799
H         10.77642         5.11299         2.40183
O         13.74821        24.77367         1.32086
H         13.73397        25.68295         1.68429
O         10.28943         8.44237         1.76103
H         10.20441         7.52248         2.12408
O         10.61869         7.58819        -1.81911
H         11.44095         7.25396        -2.25853
O         10.93853        37.70608         2.89119
H         10.33781        36.99536         3.21229
O          3.48691        20.35988        -1.40581
H          4.37469        20.06613        -1.72789
O          8.84045        10.62696         2.06623
H          9.25051         9.76502         2.33140
O         13.37535        29.15211         0.98756
H         14.17353        28.83202         1.46010
O          6.13282        29.44593         1.32137
H          5.33677        28.99538         1.67809
H          1.30037         2.32613        -0.84474
H         -0.87366         3.52204        -1.10720
H         -0.97111         5.98632        -0.99812
H         -1.02179         7.91500        -0.66317
H         -1.06867        10.26967        -0.09153
H         -1.00902        11.72038         1.25250
H         -1.02763        13.90262         2.43530
H         -1.09660        16.92781         1.81084
H         -1.04571        19.08064         0.56249
H         -0.89969        20.71465        -0.56001
H         -0.92164        23.15376        -0.71265
H         -0.98264        25.10181        -0.92479
H         -0.94529        27.51739        -1.11250
H         -1.00918        29.47194        -0.75757
H         -1.01525        31.88581        -0.85404
H         -1.01510        33.89039        -0.89691
H         -0.92675        36.34865        -0.80547
H          0.35149        38.45990        -0.57237
H          3.71290         2.37128        -0.51262
H          2.48454        39.64643        -0.24729
H          6.15296         2.38760        -0.30701
H          4.93204        39.65013        -0.31810
H          8.57071         2.37294        -0.01303
H          7.52615        39.57694         0.12114
H         11.01273         2.32216         0.23806
H          9.77110        39.40888         1.03301
H         13.52154         2.36400         0.37182
H         12.18435        39.38683         0.92164
H         15.98315         2.38437         0.31496
H         14.55634        39.47050         0.47763
H         18.43653         2.35891         0.16196
H         17.01783        39.59313         0.63233
H         20.58233         3.55827        -0.17242
H         21.81646         5.64048        -0.65263
H         21.83228         8.06666        -1.12432
H         21.81995         9.98018        -0.50806
H         21.80474        12.34637        -0.12503
H         21.89282        14.30170        -0.34637
H         21.90812        16.72037        -0.21508
H         21.91686        18.61801        -0.28757
H         21.94329        21.03774        -0.23910
H         21.95370        22.97443        -0.12987
H         21.99288        25.36669         0.12629
H         21.98086        27.30994         0.62532
H         21.94756        29.70832         0.88465
H         21.92909        31.68899         0.89855
H         21.87035        34.12267         0.92885
H         21.71946        36.07426         1.23447
H         21.61128        38.53973         1.17235
H         19.46599        39.72437         0.81517
