         634
 CSIRO Nanostructure Databank - Neutral Graphene Oxide Data Set
C         23.50627        69.99469        -2.45721
C         23.47225        71.43403        -2.39307
C         22.26093        72.14604        -2.59074
C         23.43103        74.26539        -2.40907
C         22.25630        73.54306        -2.60044
C         25.86500        65.68447        -1.92156
C         25.85199        67.11190        -1.95470
C         24.68375        67.83330        -2.20675
C         25.89585        69.95980        -1.87169
C         24.66897        69.26247        -2.21148
C         25.97465        71.44443        -2.14654
C         24.65602        72.16390        -2.14806
C         25.88113        74.31211        -2.03108
C         24.66179        73.59155        -2.16339
C         28.26649        61.42768        -1.37419
C         28.26473        62.83238        -1.44431
C         27.06356        63.56180        -1.63252
C         28.36387        65.70357        -1.90596
C         27.05203        64.96179        -1.75764
C         28.27872        67.14563        -1.45810
C         27.07782        67.82586        -1.61454
C         28.18307        69.97021        -0.84305
C         27.02448        69.26678        -1.50334
C         28.32290        71.44395        -1.19351
C         27.03149        72.14907        -1.32420
C         28.37686        74.31581        -1.40188
C         27.06105        73.69964        -1.44796
C         30.64250        57.12338        -0.90263
C         30.65265        58.53146        -0.93996
C         29.46639        59.27670        -1.14459
C         30.69492        61.41022        -0.95592
C         29.45383        60.68640        -1.15118
C         30.70846        62.80422        -1.01811
C         29.51917        63.55683        -1.28459
C         30.75455        65.69366        -1.06185
C         29.55873        64.95534        -1.37362
C         30.74087        67.10492        -0.94230
C         29.49936        67.85418        -1.10928
C         30.68625        69.99224        -0.45135
C         29.47811        69.21395        -0.90101
C         30.79442        71.33403        -1.17801
C         29.50210        72.11962        -1.10255
C         30.80968        74.22320        -1.05989
C         29.55379        73.58051        -1.19267
C         32.99015        52.83585        -0.37017
C         32.96958        54.21235        -0.19443
C         31.79574        54.97541        -0.55920
C         33.15783        57.03856        -0.59842
C         31.80909        56.35718        -0.65051
C         33.08053        58.53276        -0.40016
C         31.89973        59.24650        -0.69693
C         33.12675        61.35358        -0.42788
C         31.91033        60.66601        -0.70435
C         33.16591        62.78506        -0.44366
C         32.02818        63.51942        -1.10118
C         33.11957        65.66307        -0.40735
C         31.96373        64.98683        -0.77634
C         33.15724        67.08660        -0.40954
C         31.94806        67.80452        -0.63907
C         33.17947        69.92200        -0.41314
C         31.97569        69.22595        -0.54983
C         33.19064        71.37996        -0.43978
C         32.02219        72.09206        -0.73232
C         33.22962        74.20583        -0.51694
C         32.02079        73.51963        -0.78307
C         35.44458        48.51832        -0.21534
C         35.36036        49.90162         0.11414
C         34.18516        50.60751        -0.10911
C         35.25094        52.76520         0.81495
C         34.04664        52.02753         0.22737
C         35.31903        54.22734         0.62481
C         34.15194        54.90100         0.27930
C         35.43630        57.06695         0.45802
C         34.07973        56.39508         0.43973
C         35.46229        58.45706         0.31566
C         34.26636        59.20247        -0.04060
C         35.52687        61.31722         0.15061
C         34.29435        60.62468        -0.06925
C         35.54101        62.75350         0.12895
C         34.31958        63.46185        -0.08682
C         35.59792        65.64466         0.04017
C         34.28080        64.93552         0.21630
C         35.61917        67.06081        -0.05625
C         34.39220        67.78788        -0.21129
C         35.63868        69.92204        -0.07072
C         34.41123        69.20920        -0.24961
C         35.64434        71.36009        -0.04955
C         34.42151        72.07538        -0.23187
C         35.65867        74.18659        -0.01176
C         34.42419        73.50528        -0.25544
C         37.95385        44.20998        -0.42693
C         38.02906        45.70919        -0.40538
C         36.71063        46.43063        -0.39233
C         37.70623        48.38515         0.84273
C         36.60999        47.74598         0.01862
C         37.72167        49.88721         0.75000
C         36.56541        50.58643         0.59597
C         37.78947        52.79366         0.93436
C         36.52337        52.00175         1.15966
C         37.80513        54.17694         0.97771
C         36.57312        54.91859         0.82223
C         37.88877        57.02695         0.89674
C         36.62978        56.33238         0.72290
C         37.87186        58.42973         0.88142
C         36.68836        59.15984         0.55443
C         37.98648        61.26383         0.43411
C         36.69760        60.57201         0.41758
C         38.02665        62.76584         0.28824
C         36.74781        63.49298         0.24025
C         38.11419        65.58801        -0.04372
C         36.78080        64.90340         0.15685
C         38.07729        67.06900         0.22450
C         36.86128        67.77497         0.06961
C         38.08450        69.91809         0.27499
C         36.85388        69.20951         0.10199
C         38.10653        71.34881         0.26070
C         36.86473        72.06790         0.12900
C         38.08764        74.29126         0.50399
C         36.84124        73.49940         0.18095
C         40.21738        39.88927        -0.31404
C         40.24765        41.26590        -0.21507
C         39.06168        42.03003        -0.35439
C         40.20628        43.93584         0.73866
C         39.04158        43.42855        -0.10077
C         40.21019        45.44049         0.98131
C         39.01127        46.25380         0.61015
C         40.19441        48.35414         1.13793
C         39.06852        47.73575         0.71295
C         40.19385        49.80916         1.43136
C         38.94028        50.58790         1.21571
C         40.27422        52.73867         1.36652
C         39.07585        52.03245         0.77936
C         40.27198        54.11323         1.44098
C         39.07576        54.88645         1.14859
C         40.43459        56.98476         1.18711
C         39.12427        56.28402         1.13036
C         40.37576        58.43233         1.00247
C         39.09412        59.14848         1.39093
C         40.31954        61.31787         1.21477
C         39.14628        60.59919         1.00155
C         40.36638        62.76469         1.15786
C         39.22870        63.48674         0.75099
C         40.42322        65.58750         1.01026
C         39.24879        64.88551         0.66080
C         40.46454        67.01434         0.87755
C         39.28019        67.74640         0.50985
C         40.51025        69.89068         0.63147
C         39.28879        69.18964         0.49693
C         40.55369        71.30262         0.53050
C         39.34530        72.03953         0.37915
C         40.55038        74.17160         0.59064
C         39.37752        73.49737         0.47017
C         42.75867        36.36090        -2.45749
C         42.73476        37.25529        -1.43014
C         41.40872        37.69277        -0.84705
C         42.71048        39.72482         0.27019
C         41.43274        39.06315        -0.16305
C         42.69332        41.22401         0.60923
C         41.59665        41.96700        -0.18466
C         42.70253        44.06629         0.57249
C         41.53957        43.39673         0.30090
C         42.69205        45.49695         0.90735
C         41.49924        46.15430         1.11712
C         42.68530        48.39212         0.84871
C         41.48703        47.63066         1.44988
C         42.68822        49.83561         1.31212
C         41.47994        50.54496         1.44341
C         42.70616        52.61810         1.86496
C         41.47846        51.95563         1.59288
C         42.73528        54.05196         2.11292
C         41.42890        54.85390         2.08288
C         43.07123        56.73759         1.44380
C         41.59600        56.27612         1.51289
C         43.33719        58.20725         1.33068
C         41.48367        59.26100         0.85458
C         42.69628        61.21934         2.07171
C         41.54306        60.59970         1.31658
C         42.76408        62.72709         1.84605
C         41.58087        63.44460         1.47487
C         42.75666        65.58944         1.82357
C         41.58799        64.87164         1.43067
C         42.75171        67.01995         1.79484
C         41.65776        67.69706         1.23386
C         42.95857        69.91104         1.36724
C         41.73831        69.13119         0.88764
C         42.85341        71.38006         1.41155
C         41.78744        72.01397         0.83056
C         43.07571        74.19020         0.97945
C         41.86977        73.46852         0.43299
C         45.21129        34.31806        -4.46820
C         43.99714        34.83460        -3.98093
C         45.23855        36.31615        -2.49299
C         43.99285        35.82276        -2.99194
C         45.25844        37.34133        -1.51009
C         44.00393        37.75448        -0.86389
C         45.26720        39.84576        -0.07699
C         44.02575        39.05069        -0.03613
C         45.23106        41.26032         0.17076
C         44.00634        41.95668         0.36782
C         45.19920        44.10181         0.51455
C         43.98240        43.35751         0.46336
C         45.18334        45.52395         0.73576
C         43.96110        46.22307         0.92462
C         45.19728        48.35781         1.01496
C         43.97728        47.63668         1.04695
C         45.15480        49.86553         0.86004
C         43.90782        50.52154         1.40910
C         45.19265        52.50356         2.15470
C         43.90917        51.87440         1.80252
C         45.21093        53.97100         2.49988
C         43.91675        54.67702         2.42133
C         45.24828        56.84435         2.67463
C         43.89590        56.16498         2.63618
C         45.16811        58.33266         2.99233
C         44.12728        59.00917         2.08928
C         45.14076        61.22583         2.42462
C         44.04856        60.49834         2.06553
C         45.11975        62.70987         2.73391
C         43.91765        63.44326         2.17964
C         45.17879        65.59796         2.38257
C         43.93069        64.86492         2.17859
C         45.18327        66.98266         2.47758
C         43.84465        67.74267         2.56475
C         44.78173        70.07710         2.94401
C         43.90367        69.23450         2.25404
C         45.07630        71.40373         2.59875
C         43.84138        72.18554         2.22980
C         45.34395        74.16852         1.93625
C         44.07367        73.55846         1.66576
C         46.42719        34.78020        -3.98668
C         47.69050        36.29249        -2.45992
C         46.46672        35.79402        -2.99573
C         47.69958        37.33406        -1.55303
C         46.47237        37.91972        -1.10026
C         47.70912        39.94692        -0.38209
C         46.47472        39.21226        -0.43431
C         47.69018        41.33729        -0.10743
C         46.44921        42.00706         0.12817
C         47.65661        44.16287         0.30353
C         46.43096        43.41770         0.34168
C         47.62914        45.56453         0.46165
C         46.41840        46.25179         0.71245
C         47.67272        48.42534         0.88757
C         46.41397        47.68284         0.87502
C         47.67733        49.83013         1.13360
C         46.43894        50.54936         1.28357
C         47.72217        52.52903         2.20227
C         46.44708        51.83789         1.76676
C         47.66763        54.04898         2.09283
C         46.48346        54.72948         2.31736
C         47.70872        56.90870         2.31225
C         46.44089        56.18483         2.44402
C         47.71397        58.34882         2.37270
C         46.50419        59.06479         2.82586
C         47.62823        61.25676         2.10305
C         46.44930        60.55056         2.63546
C         47.62232        62.69110         2.12611
C         46.41614        63.42363         2.38658
C         47.69961        65.51688         2.48955
C         46.40983        64.81783         2.36718
C         47.75448        66.97670         2.38715
C         46.47020        67.75351         2.30224
C         47.71760        69.82732         2.82184
C         46.66978        69.01181         3.10743
C         47.68486        71.30834         3.04413
C         46.32309        72.11543         3.12539
C         47.69166        74.16668         2.39764
C         46.43706        73.49522         2.46166
C         48.99265        37.81872        -0.94769
C         50.14582        40.00236        -0.58556
C         48.96065        39.29843        -0.64984
C         50.16760        41.39974        -0.30289
C         48.91599        42.08304        -0.10260
C         50.14508        44.21285         0.15278
C         48.89713        43.47784         0.08584
C         50.13674        45.57704         0.33369
C         48.86671        46.35121         0.12760
C         50.13120        48.45079         0.67236
C         48.88496        47.74749         0.68755
C         50.14243        49.88134         0.92354
C         48.92047        50.54848         1.21115
C         50.15234        52.64565         1.53851
C         48.94569        51.92118         1.56939
C         50.14253        54.08698         1.72332
C         48.91976        54.76750         1.92782
C         50.15714        56.93464         1.88177
C         48.88615        56.20112         2.02475
C         50.11621        58.44255         1.79136
C         48.81587        59.11057         1.95287
C         49.87504        61.25329         1.04200
C         48.76997        60.53055         1.77772
C         50.00631        62.69741         1.45014
C         48.87966        63.35438         1.94225
C         50.32392        65.49290         2.20435
C         48.99368        64.75859         2.37134
C         50.17107        66.97394         1.95503
C         48.94916        67.65417         2.31484
C         50.12177        69.85495         1.93089
C         49.05546        69.11862         2.68153
C         50.11241        71.30397         2.02744
C         48.94293        72.02540         2.61972
C         50.11968        74.16713         2.11822
C         48.91113        73.49362         2.38702
C         51.37974        42.10988        -0.24248
C         52.61159        44.23439        -0.08060
C         51.40878        43.49746        -0.00359
C         52.64233        45.62712         0.11230
C         51.40999        46.29497         0.67985
C         52.54601        48.57659         0.09400
C         51.32875        47.77396         0.44227
C         52.66816        49.80210         1.01708
C         51.36694        50.58280         1.03592
C         52.70150        52.64806         1.52658
C         51.37642        51.95419         1.29192
C         52.62271        54.13657         1.29841
C         51.39137        54.80829         1.50684
C         52.51953        56.95160         1.06907
C         51.36210        56.22031         1.41167
C         52.37503        58.37699         0.57733
C         51.24358        59.17316         1.16965
C         52.35587        61.28146         0.54623
C         51.19239        60.52607         0.98206
C         52.33885        62.69771         0.56248
C         51.20179        63.41800         1.09905
C         52.38029        65.57289         0.75584
C         51.28064        64.81172         1.26093
C         52.36925        66.99998         0.83258
C         51.22769        67.69750         1.40422
C         52.20866        69.92040         0.59819
C         51.16760        69.14971         1.37217
C         52.48522        71.27772         1.25446
C         51.22236        72.02209         1.63423
C         52.52220        74.13490         1.57586
C         51.29646        73.46273         1.78774
C         53.81234        46.37660        -0.05343
C         55.01278        48.51888        -0.04621
C         53.83611        47.78775         0.04633
C         55.02145        49.94302         0.09267
C         53.85304        50.63339         0.59790
C         55.02538        52.77883         0.47660
C         53.85193        51.99396         0.78952
C         55.03565        54.15503         0.67197
C         53.80592        54.86251         1.01568
C         55.02579        57.07212         0.80453
C         53.73760        56.28436         0.91226
C         54.88628        58.51944         0.37845
C         53.64625        59.17249         0.46001
C         54.73900        61.31277        -0.12130
C         53.57536        60.58088         0.27772
C         54.65748        62.71872        -0.23774
C         53.50067        63.43287         0.17107
C         54.64312        65.61087        -0.23893
C         53.50350        64.87643         0.18720
C         54.63073        67.04235        -0.17567
C         53.48654        67.74499         0.32921
C         54.67346        69.89298         0.06964
C         53.49734        69.17096         0.35531
C         54.75043        71.34706         0.22584
C         53.46007        72.12625         0.41445
C         54.88154        74.14091         0.91313
C         53.65946        73.49125         1.04488
C         56.16002        50.68489        -0.22252
C         57.29966        52.81978        -0.52396
C         56.18561        52.09211        -0.07648
C         57.36270        54.21846        -0.38983
C         56.33025        54.92834         0.46144
C         57.18260        57.14439        -0.67452
C         55.97237        56.29997        -0.15571
C         57.36890        58.48582         0.05074
C         56.05246        59.23293         0.05677
C         57.18980        61.33162        -0.56631
C         56.00563        60.62164        -0.26924
C         57.12026        62.70983        -1.02948
C         55.77836        63.45993        -0.82022
C         56.99997        65.60022        -1.03348
C         55.83122        64.92253        -0.69309
C         56.92512        67.06660        -1.19496
C         55.77037        67.78651        -0.59332
C         57.11521        69.87476        -0.49660
C         55.81948        69.16798        -0.38148
C         57.20009        71.32902        -0.16202
C         55.94006        72.03479         0.14045
C         57.23578        74.14628         0.21687
C         56.03013        73.47096         0.39000
C         58.45526        54.95236        -0.84215
C         59.63179        57.10403        -1.04048
C         58.48854        56.37724        -0.78489
C         59.63037        58.55325        -1.02033
C         58.51090        59.24421        -0.56931
C         59.63827        61.41343        -1.09938
C         58.54571        60.71921        -0.33153
C         59.57279        62.82552        -1.29917
C         58.34141        63.52244        -1.15038
C         59.47074        65.67750        -1.49726
C         58.26064        64.93018        -1.27593
C         59.47694        67.11002        -1.59464
C         58.16848        67.81268        -1.57702
C         59.41979        70.07882        -1.61281
C         58.17321        69.29960        -1.38065
C         59.52795        71.46323        -1.06953
C         58.39205        72.10939        -0.56513
C         59.62620        74.21618        -0.45784
C         58.42759        73.50795        -0.27169
C         60.78781        59.28412        -1.44300
C         61.93630        61.37201        -2.18760
C         60.76755        60.67516        -1.52426
C         61.96162        62.86671        -1.97330
C         60.74521        63.55495        -1.66389
C         61.91820        65.70451        -1.86965
C         60.70809        64.98102        -1.67856
C         61.92262        67.13411        -1.80122
C         60.66320        67.83449        -1.70909
C         61.92821        70.03792        -1.63039
C         60.67253        69.32412        -2.06126
C         61.96155        71.41792        -1.46169
C         60.75228        72.15844        -1.18725
C         62.05160        74.23908        -0.96732
C         60.81543        73.55521        -0.86570
C         63.12520        63.57473        -2.18472
C         64.34218        65.72094        -2.26656
C         63.14981        65.00550        -2.09868
C         64.38522        67.14041        -2.11786
C         63.14724        67.82596        -1.85350
C         64.35527        69.98165        -2.18957
C         63.21131        69.27443        -1.45795
C         64.39873        71.46176        -1.88202
C         63.22340        72.13605        -1.51041
C         64.45892        74.25728        -1.54818
C         63.24659        73.56281        -1.32506
C         65.60345        67.83352        -2.23322
C         66.78029        70.05838        -2.66381
C         65.70962        69.30141        -1.92397
C         66.75768        71.45028        -2.64757
C         65.58871        72.16103        -2.14752
C         66.80514        74.28682        -2.35711
C         65.61716        73.58706        -1.99652
C         67.88096        72.22364        -3.07134
C         67.89582        73.60725        -2.90212
O         58.35701        70.02594        -2.64285
O         56.17483        62.95452        -2.12787
O         46.72276        59.97348         3.96969
O         41.90692        38.97429         1.23812
O         45.61626        69.46590         3.89661
O         38.28098        61.92110        -0.88807
O         39.11664        45.70505         1.96147
O         44.12590        37.75119         0.60193
O         34.16751        52.34355         1.69519
O         42.86731        69.39663        -0.01656
O         48.44100        65.01420         3.69683
O         42.75273        48.40142        -0.56734
O         42.64766        58.76954         0.25100
O         39.32523        50.22809         2.57486
O         48.65906        71.72660         4.07044
O         57.59791        70.28197         0.83343
O         26.63840        72.92170        -0.21865
O         57.21157        67.42702        -2.61567
O         45.25323        52.96282         3.57883
O         50.50766        57.77307         3.05158
O         60.71078        69.36840        -3.52156
H         59.76870        69.41851        -3.81667
O         37.93067        74.89207         1.80694
H         37.86568        74.17243         2.46780
O         30.49794        70.31516         0.97236
H         30.66924        69.49857         1.48791
O         63.17572        60.77329        -1.79177
H         63.27179        60.87501        -0.82316
O         57.78254        58.28824         1.43914
H         58.12919        59.16846         1.73801
O         64.10716        69.84305        -3.60741
H         63.15729        70.03023        -3.77528
O         32.37435        63.49225        -2.54138
H         32.29685        62.56240        -2.84438
O         49.43849        61.27788        -0.37844
H         48.60670        61.79681        -0.41788
O         58.84658        60.88685         1.15323
H         59.82088        60.81211         1.25248
O         49.54269        69.08249         4.07114
H         49.49478        70.01330         4.40390
O         53.16030        70.97084         2.50094
H         53.30679        71.81035         2.98525
O         47.86286        52.24373         3.63596
H         46.99916        52.49732         4.05084
O         52.99251        52.45904         2.95187
H         53.06570        51.48842         3.10267
O         26.48650        71.53744        -3.52768
H         25.83080        71.10227        -4.11335
O         33.78780        56.82588        -1.89605
H         33.20249        57.20988        -2.58170
O         39.01476        59.11606         2.86411
H         39.06518        58.17441         3.13810
O         34.00608        64.99254         1.67224
H         34.06035        65.93456         1.94120
O         66.08720        69.41476        -0.51800
H         65.26951        69.27726         0.02149
O         36.50363        51.82214         2.61022
H         35.55887        51.68371         2.85791
O         56.87310        57.55472        -2.03363
H         56.86817        56.74814        -2.59187
O         43.61130        56.12574         0.23688
H         43.25691        56.63502        -0.52438
O         42.44010        41.35412         2.01440
H         41.91736        40.56469         2.28960
O         55.16399        55.95404        -1.30497
H         54.83748        56.78886        -1.70584
O         63.49254        69.30587        -0.01023
H         62.80999        68.76410         0.43931
O         46.09261        72.37224         4.53647
H         46.98083        72.42174         4.96136
O         44.76557        58.46885         4.37646
H         45.31460        59.20511         4.75331
O         27.80854        70.00337         0.58124
H         28.59861        70.35332         1.06367
O         41.66321        47.73723         2.89289
H         40.89684        47.29784         3.31986
O         52.32493        49.12339        -1.24107
H         52.16844        48.37469        -1.85388
O         37.32748        48.14468         2.23924
H         37.91218        48.71936         2.78977
O         46.39961        68.26307         0.90599
H         45.90081        67.61328         0.36575
O         51.55256        46.17967         2.15674
H         51.68855        45.22855         2.35926
O         38.65797        46.07850        -1.69899
H         38.01973        45.86524        -2.41230
O         51.93510        58.17244        -0.83161
H         51.76043        59.05967        -1.21566
O         55.51546        57.11940         2.17372
H         56.35665        57.65166         2.17497
O         52.91390        49.36066         2.37736
H         52.26557        48.65364         2.59184
O         42.05907        41.96748        -1.57167
H         41.49965        42.59420        -2.07697
O         56.98054        55.05720         1.74276
H         56.37404        55.57405         2.33156
O         51.60923        70.14004        -0.72511
H         51.49461        69.26380        -1.15006
O         42.10139        73.42578        -1.02639
H         42.84135        72.80230        -1.18876
O         43.42735        67.65219         3.97003
H         44.13614        68.07939         4.50337
O         50.11748        37.48311        -1.76295
H         50.03235        37.95964        -2.61374
O         40.98322        55.02976         3.45952
H         41.71397        55.48916         3.94709
O         44.99761        62.79346         4.18742
H         44.17527        62.31460         4.43294
O         42.29124        61.08316         3.49208
H         41.34389        61.33300         3.56037
O         39.31424        51.93865        -0.67226
H         39.50396        52.84100        -1.00639
O         43.18087        56.44546         3.86159
H         43.65770        57.14935         4.37051
O         33.46765        56.64292         1.74065
H         33.96586        56.13384         2.41400
O         52.91899        72.42018        -0.89526
H         52.46488        71.60928        -1.22971
O         45.01907        50.04517        -0.59140
H         44.20256        49.51447        -0.83959
O         38.40811        65.46080        -1.48306
H         38.42993        64.50183        -1.69426
O         39.99971        43.30297         2.04004
H         39.38151        43.88972         2.53502
O         43.17199        72.39548         3.53167
H         43.87454        72.65037         4.17275
O         50.99445        65.40846         3.50446
H         50.29121        65.54067         4.18314
O         30.98912        71.02016        -2.58729
H         31.11105        71.86339        -3.07155
O         40.39966        37.67559        -1.86248
H         40.67667        38.26965        -2.58967
O         48.79519        46.56133        -1.34482
H         47.92783        46.98210        -1.53302
O         28.59482        65.78056        -3.36462
H         27.80784        66.21534        -3.75780
H         23.41362        75.36424        -2.42671
H         25.91615        75.37178        -2.32555
H         28.45779        75.37909        -1.67384
H         30.84028        75.32294        -1.08332
H         33.24063        75.30586        -0.53010
H         35.65995        75.28615         0.02353
H         38.17051        75.14569        -0.21755
H         40.54261        75.26803         0.68524
H         43.23787        75.21867         0.61792
H         45.50560        75.19062         1.55510
H         47.68810        75.23725         2.13718
H         50.12148        75.26667         2.08199
H         52.58730        75.20303         1.83529
H         54.98488        75.18294         1.25319
H         57.28028        75.22094         0.44920
H         59.66001        75.29278        -0.23464
H         62.08408        75.32188        -0.77686
H         64.47997        75.35110        -1.43327
H         66.84214        75.37899        -2.23674
H         22.56936        69.46010        -2.67316
H         21.32831        71.58939        -2.76002
H         21.31217        74.07946        -2.77113
H         24.90784        65.14474        -1.98926
H         23.75076        67.29267        -2.42592
H         27.31908        60.88528        -1.51388
H         26.10747        63.01592        -1.65026
H         29.68225        56.59708        -1.01980
H         28.52158        58.73503        -1.30384
H         32.17333        52.33353        -0.90936
H         30.85747        54.42610        -0.73204
H         34.57791        48.04213        -0.70011
H         33.32395        50.09685        -0.56545
H         37.10461        43.74692        -0.95717
H         35.86409        45.96556        -0.92505
H         39.25772        39.36924        -0.45643
H         38.13474        41.52259        -0.66706
H         41.80587        35.99833        -2.87290
H         41.09556        36.93858        -0.07805
H         45.19188        33.53606        -5.24037
H         43.04359        34.45394        -4.37404
H         47.36993        34.36811        -4.37413
H         48.64494        35.85398        -2.78703
H         49.13642        37.27231         0.02807
H         51.09407        39.47663        -0.77160
H         52.32595        41.57297        -0.40578
H         53.53406        43.71640        -0.38427
H         54.75732        45.84885        -0.25954
H         55.96623        47.99998        -0.22981
H         57.05062        50.17352        -0.61761
H         58.12046        52.28760        -1.02929
H         59.33288        54.42128        -1.24510
H         60.58195        56.58469        -1.23737
H         61.67710        58.73842        -1.78835
H         61.84949        61.19825        -3.29786
H         64.05365        63.03396        -2.42020
H         65.27549        65.17610        -2.47244
H         66.52746        67.25631        -2.39194
H         67.65575        69.52697        -3.06920
H         68.76139        71.70850        -3.48121
H         68.78817        74.17565        -3.20092
