         344
 CSIRO Nanostructure Databank - Neutral Graphene Oxide Data Set
C          1.19578         2.09008        -0.28398
C          1.19872         3.49192        -0.30532
C          2.38661         1.37944        -0.31391
C          2.40102         4.21126        -0.43590
C          1.26098         6.42511         0.05546
C          1.23395         7.79525         0.06899
C          2.45754         5.67963        -0.28596
C          2.42598         8.57323        -0.08416
C          1.22443        10.76549        -0.06158
C          1.23408        12.11894        -0.04128
C          2.44181         9.97430        -0.13539
C          2.48986        12.88563        -0.13921
C          1.24087        15.17857        -0.45011
C          1.24989        16.47280        -0.79407
C          2.48890        14.37601        -0.38779
C          2.46637        17.19698        -1.31412
C          2.58206        18.60028        -0.76450
C          3.62237         2.06611        -0.44120
C          3.60356         3.48270        -0.59621
C          4.85693         1.36195        -0.29395
C          4.86610         4.18086        -0.90175
C          3.64495         6.35899        -0.42358
C          3.72260         7.80319         0.01295
C          4.81689         5.69466        -1.11758
C          4.91444         8.57407        -0.48292
C          3.69057        10.69537        -0.25659
C          3.72854        12.09612        -0.36903
C          4.92876         9.95371        -0.35903
C          4.96394        12.78006        -0.54098
C          3.70114        14.99157        -1.03454
C          3.76233        16.43970        -1.12747
C          4.98146        14.16578        -1.04255
C          5.01748        17.16956        -1.58327
C          3.77821        19.20515        -0.63710
C          5.04923        18.55230        -0.93766
C          6.09411         2.01871        -0.22987
C          6.16033         3.44636        -0.62665
C          7.28952         1.35345         0.08394
C          7.38739         4.20937        -0.29803
C          6.19008         6.36803        -0.87780
C          6.19491         7.86673        -0.67041
C          7.38393         5.63053        -0.39380
C          7.40109         8.52860        -0.14326
C          6.18614        10.67411        -0.28729
C          6.19434        12.09824        -0.37921
C          7.38018         9.96704        -0.05232
C          7.43871        12.81577        -0.29463
C          6.30500        14.88597        -1.12306
C          6.32037        16.36543        -1.37372
C          7.50325        14.22505        -0.52328
C          7.59831        17.11148        -1.08477
C          6.20326        19.21379        -0.66940
C          7.54326        18.61823        -0.82967
C          8.52861         2.05039         0.22865
C          8.53502         3.50985         0.10158
C          9.69288         1.37162         0.55326
C          9.76565         4.21981         0.29066
C          8.54974         6.35500        -0.04655
C          8.54792         7.79190         0.07540
C          9.77174         5.63895         0.19576
C          9.75267         8.48185         0.66748
C          8.60661        10.67793         0.15385
C          8.62621        12.10609         0.02863
C          9.79844         9.96595         0.39014
C          9.84463        12.81388         0.23653
C          8.68669        14.94071        -0.28536
C          8.74510        16.38180        -0.50870
C          9.87012        14.24430         0.18345
C          9.84685        17.10062        -0.09815
C          8.69095        19.25342        -0.17423
C          9.85172        18.55124         0.04031
C         10.94625         2.07692         0.98162
C         10.97961         3.52100         0.54800
C         12.20350         1.34067         0.61394
C         12.20568         4.19692         0.47536
C         11.01749         6.33628         0.23560
C         11.04327         7.78371         0.32443
C         12.21437         5.59805         0.21719
C         12.22446         8.49070         0.31174
C         11.02893        10.65576         0.47396
C         11.05025        12.09595         0.45945
C         12.25432         9.92394         0.47675
C         12.26870        12.79897         0.66478
C         11.04899        14.92855         0.57010
C         10.96838        16.42558         0.66288
C         12.25311        14.21867         0.87997
C         12.20686        17.18619         0.14489
C         11.03993        19.21913         0.60124
C         12.24152        18.59060         0.68902
C         13.44244         1.99375         0.61852
C         13.46367         3.47008         0.65375
C         14.65592         1.28191         0.62198
C         14.65125         4.14269         0.76031
C         13.49508         6.30431         0.02691
C         13.48760         7.81471        -0.15464
C         14.73908         5.58336         0.42123
C         14.75199         8.50044         0.31597
C         13.49296        10.61921         0.49142
C         13.50441        12.06328         0.67513
C         14.71315         9.90899         0.37797
C         14.71525        12.75036         0.79652
C         13.51769        14.85753         1.21501
C         13.67373        16.19323         1.72939
C         14.74018        14.16011         0.97796
C         14.80461        16.98403         1.35371
C         13.46018        19.19479         1.37886
C         14.76379        18.42203         1.24561
C         15.92259         1.95224         1.10100
C         15.95937         3.41161         0.61047
C         17.21127         1.28475         0.68879
C         17.21064         4.15067         1.13696
C         15.91211         6.36674         0.96770
C         15.95752         7.79909         0.49877
C         17.22713         5.63942         0.85086
C         17.21187         8.48428         0.54998
C         15.98362        10.68256         0.18691
C         15.99449        11.97263         0.98157
C         17.24313         9.89295         0.43795
C         17.24793        12.74864         0.67645
C         15.99154        14.86337         0.94656
C         15.99476        16.28447         0.97833
C         17.22490        14.16057         0.71872
C         17.20215        17.00898         0.74906
C         15.92195        19.10951         0.94481
C         17.18632        18.44236         0.76055
C         18.39597         2.02533         0.46732
C         18.41202         3.44019         0.56618
C         19.62083         1.36865         0.09176
C         19.57986         4.25237         0.09909
C         18.41034         6.32221         0.82513
C         18.44663         7.76516         0.66263
C         19.70165         5.55213         0.99084
C         19.67411         8.44722         0.54645
C         18.45374        10.59042         0.47170
C         18.44614        12.04115         0.47964
C         19.69235         9.87461         0.45996
C         19.67463        12.74241         0.33981
C         18.43475        14.88033         0.51011
C         18.42231        16.31050         0.52287
C         19.66151        14.17229         0.31602
C         19.63287        17.03164         0.33593
C         18.38474        19.14490         0.56624
C         19.62075        18.46575         0.36595
C         20.82901         2.07304        -0.05326
C         20.85847         3.47103         0.03825
C         22.06932         1.24369        -0.37223
C         22.12295         4.25407        -0.16468
C         20.94180         6.33147         0.67063
C         20.93047         7.71114         0.49366
C         22.22541         5.55430         0.69763
C         22.16070         8.44302         0.31035
C         20.91531        10.58759         0.33560
C         20.90328        12.01820         0.25226
C         22.15614         9.86612         0.24605
C         22.12177        12.73550         0.11465
C         20.86999        14.88589         0.11373
C         20.85893        16.32837         0.11004
C         22.10613        14.16543         0.00237
C         22.05185        17.04847        -0.08346
C         20.84434        19.16135         0.21402
C         22.05983        18.47454        -0.00047
C         23.29631         2.07302        -0.80735
C         23.37762         3.37898         0.04830
C         24.57127         1.31342        -0.59749
C         24.61579         4.18245        -0.24215
C         23.43825         6.32009         0.23987
C         23.40214         7.72632         0.15958
C         24.62764         5.59185        -0.13192
C         24.61455         8.45543        -0.07628
C         23.37429        10.58905         0.07990
C         23.36269        12.02463         0.04905
C         24.61205         9.88235        -0.08254
C         24.57490        12.74743        -0.03501
C         23.31815        14.86877        -0.17284
C         23.28806        16.32729        -0.54668
C         24.55748        14.18213        -0.12905
C         24.55997        17.05998        -0.23150
C         23.30856        19.17019        -0.08248
C         24.53734        18.48098        -0.12646
C         25.79653         1.98661        -0.53245
C         25.79132         3.46303        -0.85980
C         26.97406         1.33302        -0.18889
C         27.09184         4.17046        -0.59057
C         25.82560         6.33565        -0.39638
C         25.83766         7.74076        -0.28685
C         27.08400         5.65224        -0.87633
C         27.07731         8.46790        -0.37373
C         25.83213        10.59934        -0.24443
C         25.82871        12.03919        -0.15680
C         27.07768         9.89467        -0.35722
C         27.02074        12.75394        -0.22030
C         25.77406        14.91960        -0.14117
C         25.77383        16.34372        -0.14424
C         27.04452        14.19397         0.18764
C         27.01830        17.05896        -0.00096
C         25.78973        19.18046        -0.04919
C         26.99854        18.50227        -0.00652
C         28.25815         2.05011         0.09024
C         28.24784         3.50064        -0.34390
C         29.48119         1.32222        -0.42311
C         29.53020         4.19290        -0.39164
C         28.34086         6.36031        -0.43137
C         28.31570         7.74884        -0.32635
C         29.57438         5.61478        -0.38513
C         29.56578         8.50789        -0.11601
C         28.30360        10.61097        -0.49501
C         28.26032        12.07658        -0.60811
C         29.56424         9.95551        -0.41876
C         29.53875        12.86253        -0.72824
C         28.29968        14.96301        -0.13305
C         28.25139        16.36181         0.01833
C         29.54156        14.28519        -0.28491
C         29.51004        17.11252         0.38115
C         28.26185        19.21821        -0.05696
C         29.46987        18.57142        -0.00232
C         30.63678         1.98508        -0.62597
C         30.71973         3.43821        -0.50817
C         31.95454         4.10830        -0.57893
C         30.83997         6.26754        -0.37547
C         30.89676         7.73983        -0.19588
C         32.00941         5.49957        -0.48828
C         32.05471         8.51851        -0.63412
C         30.78850        10.63252        -0.56513
C         30.87173        12.12082        -0.89386
C         31.99654         9.88383        -0.71974
C         31.99946        12.83182        -0.18752
C         30.76694        14.95830        -0.11087
C         30.78951        16.39643         0.02126
C         31.97447        14.16796         0.02361
C         31.93911        17.13984        -0.14433
C         30.72443        19.26372        -0.15031
C         31.90694        18.57112        -0.18208
O         14.41714         5.73563        -1.01008
O         30.31753         8.16224         1.08914
O          5.65127         3.59897        -2.00465
O          6.55576        15.42025        -2.47262
O          6.47291         7.27156        -1.99308
O         12.85437        16.82224        -0.82064
O          7.89237        18.06145        -2.14695
O          4.17593        14.28835        -2.26524
O         28.72772        12.65645        -1.94279
O          2.72545        13.86688         0.96979
O          4.49328         5.86538        -2.52086
H          5.11489         5.29260        -3.02425
O          3.99726         7.70614         1.48468
H          3.87713         8.60522         1.86125
O         10.90570         2.10115         2.47015
H         10.15933         2.68229         2.73044
O         15.84622         1.84902         2.55244
H         16.39336         2.58054         2.93629
O         31.22375        12.18638        -2.31003
H         30.36801        12.20742        -2.80124
O         25.58846         3.54044        -2.32597
H         25.88780         4.44845        -2.60515
O         22.40512         0.44071         0.76440
H         22.77507         1.05593         1.44101
O         23.19674        16.33069        -2.03718
H         22.35848        15.87815        -2.27361
O         17.28563         4.03466         2.59358
H         18.18598         4.37078         2.84593
O         15.61689         6.44399         2.40741
H         16.41876         6.77983         2.86111
O         13.49247         8.05746        -1.60107
H         14.01993         7.32736        -2.00153
O         27.05725         5.78772        -2.37014
H         27.93505         5.49307        -2.69691
O         28.40079         2.07029         1.55741
H         29.24429         2.52974         1.75710
O         10.63425        16.78819         2.04442
H         10.55137        15.96245         2.56549
O         19.26078         4.78600        -1.22657
H         19.18118         4.02556        -1.84025
O         23.43250         2.86499         1.40878
H         23.34798         3.63489         2.02233
O         23.13402         2.40967        -2.20765
H         24.00773         2.77499        -2.51954
O          9.59003         8.34799         2.13296
H         10.35975         8.78940         2.55135
O          4.91669        17.39262        -3.02394
H          5.28274        16.57792        -3.44573
O         27.07356        14.13360         1.69089
H         27.23242        15.04881         2.01054
O         29.49462        17.11296         1.86671
H         28.82043        17.76870         2.14730
O          2.24625        17.32450        -2.75601
H          3.13202        17.52517        -3.15865
O         19.77181         5.10386         2.37953
H         20.71816         4.86892         2.56038
O         16.04592        11.61093         2.39713
H         16.09957        12.44078         2.91578
O         13.15166        19.28061         2.79667
H         12.28236        19.72371         2.89375
O         16.13652         3.31511        -0.83603
H         15.71540         4.09779        -1.25695
O         22.45618         5.16905         2.11663
H         22.74901         5.97956         2.58677
O         12.86724        16.60903         2.71372
H         13.04283        17.56034         2.95381
O         22.12692         4.76813        -1.51598
H         22.26345         3.99006        -2.11574
O         15.99880        11.06440        -1.22362
H         15.78207        10.26944        -1.75496
H          0.23983         1.55467        -0.19872
H          0.23869         4.01853        -0.22756
H          2.38486         0.28355        -0.22859
H          0.31718         5.88410         0.20452
H          0.26628         8.30044         0.19813
H          0.25918        10.24477         0.00528
H          0.28719        12.66806         0.05662
H          0.30952        14.71085        -0.09748
H          0.30733        17.04199        -0.79034
H          1.65768        19.15324        -0.53850
H          4.81913         0.27891        -0.10177
H          3.83337        20.24268        -0.26996
H          7.26808         0.26925         0.27091
H          6.15200        20.21636        -0.21465
H          9.65541         0.27787         0.67445
H          8.61885        20.31394         0.11110
H         12.16874         0.24274         0.54006
H         10.92617        20.26904         0.92300
H         14.62734         0.18140         0.57363
H         13.61970        20.24163         0.99555
H         17.25829         0.18503         0.65309
H         15.88840        20.20415         0.83266
H         19.61814         0.27841        -0.04967
H         18.37669        20.24509         0.57831
H         21.80579         0.53912        -1.20309
H         20.84951        20.26045         0.26773
H         24.52780         0.23869        -0.36080
H         23.31020        20.26810        -0.01047
H         26.93311         0.26020         0.05785
H         25.78288        20.28085        -0.04420
H         29.44200         0.22615        -0.51082
H         28.23157        20.30784        -0.21342
H         31.55139         1.44146        -0.90872
H         32.88282         3.52794        -0.67667
H         32.98992         5.99556        -0.49322
H         32.97184         7.99578        -0.94043
H         32.89970        10.42956        -1.02824
H         32.92347        12.26987         0.01197
H         32.87019        14.66501         0.42515
H         32.89947        16.63856        -0.33288
H         30.71328        20.35581        -0.28182
H         32.85434        19.11254        -0.31424
