         424
 CSIRO Nanostructure Databank - Neutral Graphene Oxide Data Set
C          1.25641         3.48385        -0.87290
C          0.05825         4.14059        -0.71485
C          1.19381         6.28078        -0.36016
C          0.02503         5.53494        -0.47216
C          1.16874         7.74402        -0.23062
C         -0.02891         8.48017        -0.37095
C          1.15749        10.60336        -0.17958
C         -0.03925         9.86642        -0.31644
C          1.15788        12.06998        -0.09764
C         -0.05941        12.80781        -0.09033
C          1.13904        14.92872         0.13569
C         -0.06540        14.18149         0.00938
C          1.14967        16.36093         0.20196
C         -0.06208        17.11209         0.08534
C          1.15467        19.22801         0.23591
C         -0.05433        18.47863         0.06169
C          1.15590        20.62896         0.08727
C          0.05051        21.37180        -0.46163
C          1.42385        23.46398        -0.68922
C          0.13620        22.69427        -0.75163
C          1.28277        24.89423        -0.22998
C          0.07046        25.55504        -0.01017
C          1.15436        27.77879         0.56543
C         -0.02756        26.90295         0.31397
C          1.25270        29.07694        -0.35199
C         -0.02471        29.86503        -0.46363
C          1.06484        32.00361         0.14710
C         -0.09783        31.19459        -0.29708
C          1.05218        33.51183         0.22034
C         -0.14663        34.26589        -0.21500
C          1.17300        36.28344        -0.66395
C         -0.08707        35.56427        -0.58134
C          1.19449        37.63945        -1.09383
C          3.72006         3.53394        -0.87739
C          2.49024         4.19446        -0.74720
C          3.67941         6.29610        -0.26116
C          2.46384         5.60453        -0.45546
C          3.63723         7.69811         0.29528
C          2.37438         8.45842        -0.05629
C          3.65068        10.59120        -0.10173
C          2.36555         9.86789        -0.06597
C          3.64605        12.09341        -0.06385
C          2.35651        12.79500         0.02954
C          3.61163        14.92665         0.31098
C          2.37402        14.21476         0.17214
C          3.61823        16.33995         0.42031
C          2.37743        17.06190         0.35954
C          3.61744        19.16412         0.64714
C          2.38559        18.49262         0.45654
C          3.62352        20.60407         0.88763
C          2.31144        21.40356         0.53951
C          3.66315        23.47442         0.51764
C          2.48408        22.79414         0.15519
C          3.74349        24.89933         0.37000
C          2.56526        25.66596        -0.19167
C          3.64312        27.72876         0.53462
C          2.46371        27.04220         0.40839
C          3.60503        29.21828         0.76029
C          2.39991        29.91182         0.16683
C          3.59149        32.06897         0.21026
C          2.37494        31.29793         0.18874
C          3.61956        33.47159         0.06919
C          2.37174        34.29453         0.36479
C          3.60788        36.29457        -0.55383
C          2.37525        35.62876        -0.35510
C          3.62329        37.67223        -0.94702
C          2.38181        38.33116        -1.18915
C          6.17815         3.55506        -0.85630
C          4.94242         4.22388        -0.71555
C          6.16359         6.31793        -0.18838
C          4.92135         5.62850        -0.38099
C          6.15217         7.76111         0.03324
C          4.92110         8.45907         0.08182
C          6.10667        10.58677         0.29844
C          4.91328         9.86231         0.16468
C          6.07768        12.03006         0.73744
C          4.86919        12.81422         0.31264
C          6.10750        14.91984         0.57703
C          4.85956        14.19577         0.41388
C          6.10610        16.32791         0.60065
C          4.86125        17.05293         0.55101
C          6.11282        19.19661         0.78387
C          4.86359        18.46667         0.64542
C          6.11564        20.60989         0.92587
C          4.88424        21.35100         0.89864
C          6.05851        23.50006         1.40570
C          4.84413        22.74849         0.92156
C          6.15464        24.94356         0.96528
C          4.93192        25.61576         0.61385
C          6.13421        27.78135         0.68185
C          4.91409        27.04564         0.53643
C          6.13406        29.16903         0.57291
C          4.87649        29.85274         0.25677
C          6.13966        32.04924         0.09902
C          4.85746        31.32974         0.05705
C          6.10070        33.44282        -0.18813
C          4.83567        34.14721        -0.21367
C          6.05080        36.24987        -0.73482
C          4.85306        35.57535        -0.46789
C          6.07998        37.66659        -0.95523
C          4.85523        38.35298        -1.07543
C          8.63822         3.56719        -0.85910
C          7.40096         4.23201        -0.68148
C          8.64623         6.30986        -0.16008
C          7.38710         5.63572        -0.33667
C          8.67946         7.76682         0.25151
C          7.35885         8.48299         0.09772
C          8.56840        10.64841         0.23898
C          7.34452         9.89866         0.24387
C          8.58586        12.05885         0.42108
C          7.35986        12.78416         0.53312
C          8.59188        14.92099         0.58603
C          7.35014        14.18863         0.58851
C          8.57693        16.31863         0.59257
C          7.35173        17.05258         0.63659
C          8.60381        19.19693         0.81841
C          7.34947        18.47511         0.73073
C          8.61133        20.61050         1.02210
C          7.35687        21.34678         1.07554
C          8.57619        23.49059         1.46189
C          7.33938        22.72905         1.22043
C          8.62253        24.94726         1.23963
C          7.36029        25.64680         1.05576
C          8.59584        27.79886         0.92230
C          7.38816        27.08036         0.89242
C          8.62606        29.20827         0.73428
C          7.34630        29.98204         0.90070
C          8.58050        32.03185         0.11929
C          7.34495        31.36479         0.29426
C          8.55076        33.42448        -0.23000
C          7.31896        34.11509        -0.37468
C          8.57427        36.26516        -0.71244
C          7.31775        35.48639        -0.98565
C          8.56883        37.69920        -0.86786
C          7.33146        38.35272        -1.04999
C         11.09899         3.59386        -0.95701
C          9.86615         4.24635        -0.71918
C         11.14950         6.33466        -0.02564
C          9.84318         5.64573        -0.35001
C         11.12199         7.81751        -0.28186
C          9.79275         8.48610        -0.52758
C         11.09185        10.69542        -0.05345
C          9.79990         9.97981        -0.23076
C         11.08168        11.98970         0.72263
C          9.82136        12.77876         0.48607
C         11.09233        14.86905         0.72388
C          9.84962        14.18093         0.59480
C         11.05162        16.33082         1.09577
C          9.88721        17.04147         0.39527
C         11.06068        19.18773         0.88753
C          9.83753        18.50574         0.76094
C         11.07361        20.60303         0.97108
C          9.84416        21.29277         1.09473
C         11.11051        23.48483         1.06538
C          9.89123        22.73323         1.38900
C         11.09634        24.89548         1.05103
C          9.84548        25.60859         1.16559
C         11.11445        27.79106         0.78005
C          9.88048        27.11168         1.32574
C         11.08718        29.17467         0.49958
C          9.83506        29.90139         0.53064
C         11.04098        31.95744        -0.10386
C          9.82710        31.30963         0.22123
C         11.01062        33.37664        -0.49285
C          9.76473        34.14560        -0.37896
C         11.01844        36.32183        -0.32807
C          9.76047        35.56240        -0.52170
C         11.04214        37.76627        -0.65454
C          9.80573        38.40945        -0.87270
C         13.55149         3.67008        -1.35577
C         12.33882         4.30114        -0.96615
C         13.57279         6.40682        -0.71824
C         12.36746         5.68112        -0.63261
C         13.58275         7.82525        -0.41710
C         12.33409         8.51902        -0.27498
C         13.55769        10.62765         0.10648
C         12.36290         9.94185        -0.08736
C         13.55840        12.06409         0.35042
C         12.35736        12.76201         0.51553
C         13.58282        14.88158         0.59441
C         12.34141        14.18367         0.62906
C         13.58874        16.37162         0.38866
C         12.34236        17.06896         0.85756
C         13.55214        19.18050         1.03414
C         12.32976        18.46510         0.90562
C         13.57012        20.60189         0.97239
C         12.31578        21.32971         0.89051
C         13.52587        23.47013         0.53418
C         12.29431        22.73505         0.81430
C         13.54343        24.93595         0.65054
C         12.32917        25.62953         0.82539
C         13.54294        27.74430         0.37179
C         12.32250        27.06173         0.68766
C         13.53603        29.15282         0.15877
C         12.30129        29.86798         0.18938
C         13.53793        31.96882        -0.27539
C         12.28569        31.27083        -0.08082
C         13.57651        33.38688        -0.37718
C         12.31873        34.11446        -0.57669
C         13.58243        36.29712        -0.51990
C         12.31978        35.57897        -0.30591
C         13.54355        37.72570        -0.64878
C         12.28485        38.41332        -0.73353
C         16.00700         3.71041        -1.93094
C         14.74775         4.38853        -1.43571
C         16.02463         6.56650        -1.34523
C         14.76584         5.76184        -1.12854
C         16.04727         7.87565        -0.59031
C         14.80079         8.53882        -0.34212
C         16.02823        10.62067         0.15996
C         14.80192         9.92747        -0.00722
C         16.03227        12.03799         0.37660
C         14.80448        12.75899         0.42774
C         16.06863        14.88274         0.65055
C         14.80683        14.18236         0.56079
C         16.05911        16.32138         0.88163
C         14.85798        17.01913         0.87384
C         16.07366        19.14879         1.50616
C         14.75241        18.38061         1.50595
C         16.06245        20.65177         1.37985
C         14.78418        21.31154         1.06192
C         16.05618        23.51283         1.06834
C         14.83670        22.71369         0.67500
C         16.03781        24.90384         0.47145
C         14.77829        25.61031         0.44215
C         15.97617        27.71341        -0.07124
C         14.77009        27.02559         0.26118
C         15.97218        29.09145        -0.24993
C         14.75995        29.83393        -0.12951
C         16.00645        31.96337        -0.46402
C         14.76207        31.25024        -0.30321
C         16.01371        33.39649        -0.47298
C         14.78630        34.11090        -0.42396
C         16.02349        36.26800        -0.59281
C         14.78757        35.56843        -0.52915
C         16.01437        37.71922        -0.65898
C         14.76647        38.41064        -0.74083
C         18.47889         3.64903        -1.39598
C         17.27168         4.39179        -1.45588
C         18.49324         6.40332        -0.78490
C         17.27872         5.74994        -1.14749
C         18.51334         7.79451        -0.42912
C         17.25044         8.51633        -0.31177
C         18.46747        10.58037         0.37053
C         17.25677         9.89950         0.10019
C         18.47033        11.96947         0.57625
C         17.26953        12.72480         0.53341
C         18.53708        14.86634         0.78094
C         17.27408        14.16606         0.66090
C         18.55166        16.28778         0.93492
C         17.31682        17.01379         1.06183
C         18.52863        19.16704         1.10289
C         17.33905        18.43129         1.21808
C         18.53245        20.59483         0.92625
C         17.31844        21.34883         1.00612
C         18.51724        23.42315         0.48642
C         17.31480        22.72684         0.78758
C         18.49265        24.83967         0.26269
C         17.23169        25.53722         0.17263
C         18.49478        27.69736        -0.19283
C         17.21655        26.92343        -0.43424
C         18.48955        29.08636        -0.33016
C         17.21616        29.76867        -0.77941
C         18.45361        31.95852        -0.60774
C         17.22253        31.25906        -0.56065
C         18.44700        33.38447        -0.73548
C         17.25044        34.09881        -0.64579
C         18.48177        36.25065        -0.67835
C         17.25923        35.55544        -0.64212
C         18.51278        37.72447        -0.35042
C         17.21593        38.41735        -0.62200
C         19.66861         4.26385        -1.06499
C         20.91994         6.31248        -0.42581
C         19.70517         5.65235        -0.75955
C         20.92227         7.65500        -0.10655
C         19.72308         8.41131        -0.09582
C         20.85350        10.68004        -0.21910
C         19.78513         9.82553         0.44556
C         20.86280        12.00331        -0.01980
C         19.79909        12.64064         0.85169
C         20.96536        14.84446         0.90936
C         19.75994        14.15133         0.77740
C         20.98235        16.23937         1.02257
C         19.79547        16.96950         1.03353
C         20.95245        19.14803         0.49766
C         19.85431        18.46191         1.26915
C         20.91009        20.47757         0.26618
C         19.73456        21.27331         0.56768
C         20.94225        23.42867         0.16631
C         19.74072        22.68992         0.39483
C         20.92799        24.80066         0.06910
C         19.71312        25.54506         0.10880
C         20.90086        27.74716         0.17258
C         19.70941        26.99181         0.02896
C         20.89707        29.12184         0.05631
C         19.70063        29.83790        -0.22587
C         20.89398        32.05093        -0.28029
C         19.69524        31.25986        -0.42239
C         20.92110        33.38264        -0.54305
C         19.72540        34.07262        -1.14721
C         20.85242        36.30948        -1.22036
C         19.71123        35.57562        -0.94309
C         20.81993        37.74380        -1.27597
C         19.70334        38.43463        -0.93356
O         10.41823        10.74443        -1.35542
O          9.29301        23.08368         2.68663
O         11.65169        33.69207        -1.81552
O         16.15993        19.99530         2.70758
O         14.28669        22.99670        -0.64563
O          0.79425        32.70688         1.42926
O          4.80148        30.37181        -1.10753
O          3.79616        11.36469        -1.36102
O          2.69874        21.07015         1.91143
O         11.66200        35.96540         0.95768
O         17.17289        29.58457        -2.23883
H         17.19224        28.60654        -2.39712
O         11.33350         6.18048         1.43718
H         11.40734         5.21875         1.61513
O          3.56701         7.52162         1.76380
H          2.78230         6.96294         1.95073
O          1.04964        28.30087         1.92885
H          0.80877        27.55456         2.51749
O          5.92913        11.92875         2.22052
H          6.06921        12.82824         2.58832
O         20.16448        12.34539         2.24938
H         19.48965        12.76464         2.82450
O         20.14471         9.66447         1.84487
H         20.25596        10.57514         2.22295
O         19.83769        33.88702        -2.60421
H         19.74554        32.92659        -2.78277
O         13.56293        16.56428        -1.08793
H         12.64756        16.36708        -1.38874
O         16.01063         2.32258        -1.58047
H         16.03748         2.25321        -0.60446
O          9.49048         8.32034        -1.93704
H          9.93602         9.06206        -2.40792
O         15.95859        23.66708         2.51866
H         16.77744        24.10480         2.83235
O          1.56014        28.61619        -1.68622
H          2.19629        27.86077        -1.64691
O         18.71394        37.79770         1.13124
H         19.58255        37.37919         1.31504
O          9.04920         7.86955         1.65002
H          8.38955         7.37876         2.18221
O         11.06701        11.59039         2.13719
H         11.04549        12.40812         2.67763
O          7.24929        30.25063         2.35922
H          7.35192        29.39166         2.82309
O         20.20576        18.61379         2.69597
H         20.14416        19.56948         2.90865
O         10.78311        16.40526         2.53246
H         11.63050        16.27744         3.00870
O          3.56142        29.47613         2.19190
H          2.67049        29.17227         2.49581
O          2.91173        25.94595        -1.61377
H          2.79593        25.07931        -2.08767
O         17.14848        26.74274        -1.90168
H         16.36859        26.17740        -2.09103
O          2.48485        34.64730         1.77618
H          2.05704        33.91363         2.27762
O          5.88318        23.60071         2.87587
H          5.83135        22.68562         3.22680
O          9.96647        27.31814         2.79117
H          9.35667        26.67655         3.21547
O         10.19829        16.97748        -1.03388
H          9.45139        17.38114        -1.52413
O          1.94700        23.48038        -2.09431
H          1.17610        23.60673        -2.68832
O         14.44395        18.09099         2.91733
H         14.82584        18.84320         3.43206
O          7.32491        35.24567        -2.45567
H          8.13978        34.73789        -2.66075
O         16.00326         6.94241        -2.77233
H         16.80436         7.48219        -2.94243
H          1.28119         2.40546        -1.08550
H         -0.88954         3.59060        -0.79783
H         -0.95576         6.02138        -0.38415
H         -0.98202         7.95644        -0.52420
H         -1.00266        10.38374        -0.41538
H         -1.02135        12.28533        -0.17484
H         -1.03350        14.69889        -0.00483
H         -1.02153        16.58960        -0.01986
H         -1.00720        19.01200        -0.05318
H         -0.89843        20.85136        -0.65560
H         -0.73463        23.19860        -1.19718
H         -0.86819        24.98640        -0.10441
H         -1.02492        27.33899         0.46930
H         -0.92214        29.31138        -0.78030
H         -1.06669        31.70325        -0.41134
H         -1.11635        33.74995        -0.17523
H         -1.00593        36.09972        -0.86273
H          0.24157        38.13964        -1.31990
H          3.73550         2.45627        -1.09831
H          2.38704        39.39000        -1.48551
H          6.18427         2.48665        -1.11869
H          4.85539        39.42854        -1.30782
H          8.63880         2.50304        -1.13867
H          7.32076        39.44213        -1.20480
H         11.09391         2.52751        -1.22736
H          9.79261        39.49186        -1.07172
H         13.54686         2.60344        -1.62499
H         12.30472        39.49789        -0.92086
H         15.99817         3.74986        -3.05598
H         14.77241        39.50756        -0.82369
H         18.45086         2.57664        -1.63634
H         17.20835        39.51732        -0.65814
H         20.60381         3.68579        -1.03932
H         21.85598         5.73561        -0.40739
H         21.86224         8.14528         0.18349
H         21.62840        10.19968        -0.83633
H         21.63637        12.63983        -0.47558
H         21.91152        14.28752         0.95407
H         21.94626        16.75112         1.14718
H         21.84690        18.57569         0.21239
H         21.76139        20.96276        -0.23226
H         21.90465        22.90305         0.10560
H         21.88058        25.32681        -0.08008
H         21.85187        27.23798         0.37933
H         21.84878        29.65877         0.16308
H         21.81425        31.56612         0.07536
H         21.85961        33.94338        -0.42064
H         21.78221        35.79526        -1.49997
H         21.71408        38.27444        -1.63450
H         19.68674        39.53377        -0.97288
