         576
 CSIRO Nanostructure Databank - Neutral Graphene Oxide Data Set
C          6.60815        19.17261        -2.72694
C          6.51638        20.55951        -2.47354
C          5.30576        21.33523        -2.73910
C          6.42438        23.45868        -2.15947
C          5.28226        22.69248        -2.64435
C          6.50110        24.81116        -2.19010
C          9.25358        14.98608        -3.02826
C          9.14132        16.36968        -2.69533
C          7.89913        17.04615        -2.75139
C          8.98951        19.12891        -2.06666
C          7.81184        18.43501        -2.50351
C          8.92434        20.58741        -1.94221
C          7.65206        21.26777        -2.04718
C          8.74398        23.37989        -1.09572
C          7.47666        22.64220        -1.46065
C          8.69739        24.78980        -0.91322
C          7.74465        25.57100        -1.79125
C          8.45805        27.61388        -0.50234
C          7.49920        26.95228        -1.27105
C          8.34313        29.01659        -0.27846
C         11.69587        10.77093        -2.66511
C         11.78809        12.21285        -2.82478
C         10.69364        12.94682        -3.29573
C         11.63786        15.26028        -3.03678
C         10.51382        14.38253        -3.16248
C         11.59446        16.49758        -2.38826
C         10.31296        17.09458        -2.26852
C         11.37126        19.13366        -1.30155
C         10.21478        18.46459        -1.87424
C         11.09811        20.41923        -0.53235
C         10.06782        21.29732        -1.20768
C         10.82870        23.22856         0.26001
C          9.84316        22.64215        -0.67254
C         10.68223        24.67868         0.61802
C          9.66038        25.46420        -0.13744
C         10.54561        27.54543         0.87430
C          9.59791        26.86799         0.03696
C         10.26394        28.87369         1.18469
C          9.31306        29.72005         0.48358
C         10.64462        31.89904         0.94979
C          9.42254        31.12229         0.46663
C         10.72796        33.33552         0.47126
C         13.46647         6.43195        -1.17917
C         13.50755         7.86738        -1.09331
C         12.52559         8.60003        -1.77168
C         13.86930        10.64851        -1.41323
C         12.61082        10.00979        -1.94979
C         13.63153        12.10988        -1.12945
C         12.93251        12.85719        -2.19611
C         14.13773        14.93498        -1.49249
C         13.32375        14.15705        -2.40525
C         14.09293        16.41943        -1.50700
C         12.82419        17.20890        -1.92197
C         13.75548        19.16214        -0.60352
C         12.62017        18.52699        -1.25131
C         13.50742        20.44499         0.19638
C         12.37301        21.28423        -0.38133
C         13.29975        23.26931         1.07633
C         12.12933        22.52126         0.50094
C         13.18282        24.68556         1.40650
C         11.85417        25.37202         1.27240
C         13.10833        27.62904         1.58222
C         11.78060        26.87400         1.40144
C         13.16743        29.05981         1.23316
C         12.11086        29.88686         1.39926
C         13.19820        31.86564         0.47711
C         11.90844        31.10006         0.53864
C         13.17565        33.26904         0.12682
C         11.90093        33.99985         0.20458
C         12.73270        36.30287        -0.42852
C         11.89865        35.48366         0.27311
C         13.03869        37.69888        -0.08200
C         15.69555         6.30501        -0.20231
C         14.53293         5.68172        -0.78336
C         15.61083         7.67504         0.22413
C         14.56158         8.49404        -0.29652
C         15.26213        10.72942         0.64111
C         14.51315         9.93358        -0.23958
C         15.64820        12.07340         0.42138
C         14.64998        12.84722        -0.32371
C         15.80688        14.92191         0.43738
C         14.85693        14.27490        -0.52980
C         16.05778        16.35545         0.05127
C         15.07817        17.08116        -0.62119
C         16.20622        19.26663        -0.01220
C         14.97097        18.51084        -0.44622
C         15.90954        20.45364         0.93444
C         14.76397        21.32529         0.38905
C         15.61957        23.20575         1.93800
C         14.48989        22.57491         1.22934
C         15.59669        24.73249         2.01370
C         14.35153        25.43550         1.63460
C         15.59853        27.59677         1.54652
C         14.39558        26.88110         1.55396
C         15.65016        28.99506         1.19980
C         14.40513        29.62385         0.58557
C         15.60790        31.90446         0.74727
C         14.36005        31.14395         0.60714
C         15.66293        33.22289         0.09575
C         14.40611        33.84472        -0.25240
C         15.68902        35.78681        -0.97258
C         14.51684        35.08998        -0.94727
C         15.56993        37.95659        -0.49271
C         14.21505        38.39440        -0.11379
C         18.15324         6.17650         0.11970
C         16.91683         5.59844        -0.24177
C         18.10304         7.42253         0.90757
C         16.78132         8.14419         1.02056
C         18.06828        10.30875         1.29786
C         16.93290         9.55821         1.40641
C         18.02808        11.81460         1.37380
C         16.89307        12.66859         0.82568
C         18.38697        14.72505         0.63315
C         17.04710        14.05629         0.68170
C         18.43929        16.21934         0.85590
C         17.22521        17.00759         0.59772
C         18.45848        19.09445         1.08707
C         17.27799        18.38995         0.58367
C         18.36765        20.56202         1.39922
C         17.12916        21.29543         1.19033
C         18.18111        23.32093         2.11321
C         16.93305        22.44389         2.15444
C         18.09299        24.78137         2.05885
C         16.90138        25.45743         2.02077
C         18.13580        27.69279         1.85546
C         16.84146        26.96774         2.17609
C         18.08901        29.06257         1.59871
C         16.84127        29.71355         1.29056
C         18.13722        31.90666         0.86867
C         16.86922        31.19238         1.12271
C         18.12356        33.24724         0.40577
C         16.88688        33.87656        -0.03228
C         18.03035        36.06847        -0.24558
C         16.90572        35.27536        -0.42549
C         18.02231        37.52098         0.21278
C         16.69680        38.27773         0.19477
C         20.62114         6.22439         0.22072
C         19.40232         5.64068        -0.21535
C         20.59245         7.37715         1.21891
C         19.34797         8.21256         1.06526
C         20.61084        10.29028         1.39552
C         19.34445         9.58273         1.18072
C         20.62406        11.64062         1.59165
C         19.37989        12.45112         1.43484
C         20.97151        14.29539         1.00471
C         19.58900        13.80492         0.82268
C         20.89649        16.41808         1.31881
C         19.55022        16.90601         1.33041
C         20.65597        18.96027         2.35638
C         19.36492        18.27507         1.96692
C         20.67522        20.45047         2.58373
C         19.40268        21.18815         2.27624
C         20.66517        23.29994         1.70661
C         19.38191        22.66691         2.13499
C         20.67085        24.77639         1.99671
C         19.38462        25.52639         2.12377
C         20.60052        27.65723         1.70121
C         19.39211        26.99685         1.89297
C         20.65622        29.12028         1.73383
C         19.32436        29.87021         1.65432
C         20.57161        31.95826         0.99739
C         19.35524        31.25936         1.13089
C         20.54335        33.33571         0.68495
C         19.33658        33.97198         0.35060
C         20.51780        36.20754         0.02861
C         19.34435        35.34343        -0.30661
C         20.49682        37.61698        -0.19020
C         19.24672        38.26356        -0.27673
C         23.09730         6.19955         0.27712
C         21.84081         5.67411        -0.14650
C         23.14684         7.36902         1.24976
C         21.87280         8.17774         1.23015
C         23.13338        10.28596         1.46784
C         21.87090         9.53392         1.40627
C         23.14694        11.65956         1.67309
C         21.85862        12.31412         2.17293
C         23.21238        14.50221         2.17994
C         21.90850        13.78962         1.83694
C         23.17817        16.07528         2.29703
C         21.86228        16.80263         2.22528
C         23.48932        19.10987         2.50163
C         21.63307        18.10808         2.81962
C         23.18715        20.46999         2.08612
C         21.95612        21.24040         2.46196
C         23.16272        23.35276         1.86188
C         21.94901        22.59651         2.12638
C         23.17714        24.72767         1.58427
C         21.88878        25.45434         1.45873
C         23.13461        27.66875         1.33336
C         21.85349        26.94637         1.35483
C         23.09443        29.08485         1.28213
C         21.90426        29.80731         1.36303
C         23.12257        32.06544         1.18454
C         21.89023        31.22774         0.87086
C         23.10392        33.35856         0.70299
C         21.82001        34.09900         0.68277
C         22.98244        36.20511        -0.30372
C         21.79315        35.53869         0.30438
C         22.99730        37.69084        -0.28251
C         21.74934        38.34359        -0.24604
C         25.56830         6.13627         0.21723
C         24.27175         5.58608        -0.09723
C         25.62482         7.51898         0.72168
C         24.39394         8.20320         1.05735
C         25.66899        10.32371         1.44678
C         24.37187         9.57058         1.24206
C         25.54800        11.80477         1.18283
C         24.35913        12.43872         1.40701
C         25.62108        14.68321         1.26970
C         24.27657        13.95625         1.19336
C         25.65278        16.08278         1.49168
C         24.48277        16.83722         2.05406
C         25.59747        19.04422         1.35995
C         24.46974        18.33114         1.91199
C         25.63204        20.42482         1.35956
C         24.40095        21.19955         1.54315
C         25.68090        23.35964         1.45755
C         24.48080        22.63710         2.00669
C         25.63363        24.77900         1.27785
C         24.38381        25.46987         1.34288
C         25.54487        27.60630         0.84567
C         24.36441        26.92590         1.17733
C         25.56686        29.07709         0.71647
C         24.38394        29.82332         1.24657
C         25.65269        32.00725         0.79499
C         24.41435        31.34445         1.23203
C         25.61673        33.32417         0.29916
C         24.26825        33.88839        -0.10614
C         25.48889        36.18814        -0.39404
C         24.27389        35.39692        -0.41731
C         25.47111        37.60765        -0.57954
C         24.23065        38.33312        -0.48202
C         28.06063         6.02894         0.22672
C         26.71113         5.43351        -0.07051
C         28.00090         7.53804        -0.00080
C         26.82710         8.21254         0.66379
C         28.02245        10.35503         0.52385
C         26.87520         9.64228         0.82528
C         27.93463        11.79642         0.20348
C         26.69442        12.55128         0.58210
C         28.01122        14.72332         0.64325
C         26.77898        14.02496         0.79496
C         28.03770        16.10973         0.88103
C         26.83989        16.78888         1.19981
C         28.10496        19.01185         0.92990
C         26.81516        18.26266         1.02838
C         28.10327        20.45087         1.41147
C         26.85654        21.18227         0.91258
C         28.10093        23.33638         1.06348
C         26.85958        22.65433         1.25990
C         28.06157        24.76081         0.85902
C         26.83526        25.44135         0.90310
C         28.08124        27.58103         0.60696
C         26.76723        26.85448         0.37890
C         28.14413        29.06193         0.65685
C         26.85744        29.82738         0.59685
C         28.19902        31.95875         0.53705
C         26.94598        31.26884         1.09832
C         28.10906        33.38956         0.10700
C         26.78795        34.04873         0.05145
C         27.89160        36.06938        -0.95734
C         26.79944        35.55011        -0.03395
C         27.87982        37.57425        -1.26142
C         26.69107        38.29657        -0.79776
C         30.39017         6.18143        -0.72906
C         29.21628         5.45730        -0.56689
C         30.50519         7.50900        -0.20838
C         29.34142         8.15069         0.34279
C         30.53844        10.39527         0.00620
C         29.34033         9.70319         0.46572
C         30.53560        11.86664        -0.39058
C         29.18274        12.56669        -0.17018
C         30.57237        14.77181        -0.18548
C         29.20575        14.05799         0.02055
C         30.52212        16.24113         0.22756
C         29.38405        16.78645         1.08838
C         30.55634        19.01328         1.05535
C         29.38613        18.29832         1.03113
C         30.58472        20.46686         0.99947
C         29.37663        21.18667         1.08478
C         30.59174        23.30398         0.86446
C         29.31814        22.59773         1.01959
C         30.55518        24.74955         0.49648
C         29.26580        25.46221         0.45940
C         30.54041        27.52110        -0.07872
C         29.30807        26.82597         0.25641
C         30.52247        28.97762        -0.24212
C         29.35354        29.75347         0.14399
C         30.35505        31.79790        -0.78472
C         29.31257        31.12315        -0.00118
C         30.40739        33.26559        -0.86431
C         29.23938        34.00703        -0.63666
C         30.28994        36.00674        -1.59524
C         29.17802        35.36964        -0.99362
C         30.35390        37.46899        -1.65272
C         29.20027        38.19945        -1.43950
C         32.74735         6.27055        -1.42049
C         31.57640         5.58727        -1.33453
C         32.90084         7.62372        -0.92580
C         31.82899         8.19730        -0.02422
C         32.94040        10.45743        -0.38685
C         31.72354         9.71376        -0.16084
C         32.99807        11.83493        -0.07082
C         31.72188        12.51600         0.39990
C         33.03975        14.66743         0.46852
C         31.81553        14.02403         0.32396
C         33.05612        16.13678         0.55313
C         31.81541        16.94226         0.41350
C         33.09687        19.00820         0.89713
C         31.83584        18.23665         1.24460
C         33.10614        20.43432         0.73826
C         31.84071        21.16245         0.79197
C         33.02234        23.28876         0.30526
C         31.82696        22.54377         0.62685
C         32.96335        24.59075        -0.14928
C         31.64647        25.28486        -0.38571
C         32.93095        27.43360        -0.75162
C         31.70756        26.79744        -0.32338
C         32.82975        28.84991        -1.15134
C         31.63318        29.60984        -0.78704
C         32.86518        31.78258        -1.37728
C         31.59500        31.02174        -1.20832
C         32.84104        33.20121        -1.48419
C         31.54637        33.87130        -1.45934
C         33.23874        36.25418        -1.78880
C         31.38717        35.19023        -1.92134
C         32.91216        37.64550        -1.50503
C         31.64737        38.16116        -1.58100
C         33.99241         8.37448        -1.25308
C         35.26243        10.49326        -1.10415
C         34.09976         9.77381        -0.88631
C         35.35293        11.87222        -0.74853
C         34.20531        12.55001        -0.18250
C         35.60512        14.50458         0.24075
C         34.31407        13.92427         0.26848
C         35.92956        15.78127         0.83929
C         34.07804        16.85072         1.14207
C         35.61603        18.90708         0.85785
C         34.25960        18.27815         0.94015
C         35.59477        20.36927         0.47553
C         34.32354        21.08797         0.57309
C         35.54052        23.22227        -0.07325
C         34.31205        22.56062         0.43716
C         35.44048        24.57249        -0.71411
C         34.14298        25.28753        -0.70541
C         35.35803        27.40727        -1.52154
C         34.12101        26.75339        -0.90192
C         35.38797        28.90941        -1.33057
C         34.11671        29.62340        -1.44364
C         35.32697        31.79114        -1.27767
C         34.08637        31.08922        -1.34097
C         35.28140        33.21183        -1.25023
C         34.08469        33.93168        -1.39280
C         34.14071        35.39279        -1.22559
C         36.53546        12.57255        -0.99459
C         37.85960        14.62216        -0.75937
C         36.69544        13.90041        -0.51308
C         38.16724        15.91148        -0.05780
C         36.93669        16.63084         0.43876
C         38.19343        18.91137         0.30646
C         36.92922        18.10593         0.71600
C         37.87785        20.14232        -0.58515
C         36.71966        20.97359        -0.05631
C         37.81887        23.07241        -1.23249
C         36.66755        22.37249        -0.55884
C         37.82503        24.60650        -1.46873
C         36.74090        25.32439        -0.64817
C         37.85339        27.43974        -1.14157
C         36.66403        26.77702        -1.08269
C         37.90988        28.92783        -1.44194
C         36.57604        29.63496        -1.29823
C         36.54474        31.05120        -1.25902
C         39.19077        16.78187        -0.70502
C         40.42432        18.87729        -0.77598
C         39.27114        18.12055        -0.42651
C         40.38594        20.29079        -0.82113
C         39.14890        20.94998        -0.81626
C         40.35381        23.15571        -1.04973
C         39.13540        22.33687        -1.43464
C         40.32646        24.52756        -0.97502
C         39.12797        25.30751        -1.11895
C         39.09128        26.67444        -0.97164
C         41.61438        21.06293        -0.93419
C         41.59446        22.42427        -0.94020
O         21.67877        26.06618         0.15225
O         21.24204        15.49800         0.33390
O         23.37333        20.74685         0.62829
O         15.74581        10.15395         1.81888
O         10.72907        24.83771         2.06519
O         16.07722        31.89402         2.16176
O         27.37191        18.66247        -0.29816
O         10.04718        21.27142        -2.65037
O         19.07390        20.04138         0.16148
O         22.70626        18.62586         3.55397
O         18.52448        12.41642         2.62492
O         29.54131         8.80483         1.62294
O         19.09417        14.09014        -0.52310
O         35.29689        23.22511         1.35449
O         17.25176         7.25729         2.10498
O         27.49932        36.53726        -2.26147
O         30.51809        31.26772        -2.15969
O         19.66551        20.76325         3.65071
O         34.70056        24.59376        -1.95754
O         24.61540        30.54395         2.47710
O         23.40233        35.69433        -1.57974
O         15.67675        37.05640        -1.57417
O         12.25219        27.29149         2.71345
O         21.90747        35.16431         1.74098
O         26.06498        29.60558        -0.59150
O         23.79643        33.15863        -1.23490
O         24.05017        16.44150         3.40412
O         20.22066        25.16324         3.31337
O         13.98517        17.10387        -2.79420
O         28.83649        13.45419        -1.26398
O         13.40032        35.71759        -1.52627
O         28.26292        28.27261         1.88869
O         11.01724        29.47786         2.19803
O         31.90034        17.87316         2.61520
O         30.88970        24.39078         1.86345
O         32.37716        35.69978        -2.76353
O         33.25953        29.09004        -2.54270
O         12.86085        14.81290        -3.55412
O         36.45779        18.55912         2.02134
O         13.26415        12.50492         0.21338
O         26.87024        12.06469        -0.80109
O         28.61234        33.02030         1.48668
O         31.06211        17.09589        -0.84083
O         15.30064        23.88516         3.19115
O         11.03716        22.37650         1.44649
O         35.06614        16.19411         1.85187
O         36.76539        22.43827        -2.04657
O         20.03086        29.72724         2.92664
O         39.26948        22.11136        -2.87524
H         38.37039        22.17391        -3.26767
O         16.82569        21.85198         3.49483
H         16.42518        22.54885         4.06862
O         18.25705        37.36745         1.66863
H         19.13796        36.94864         1.79316
O         27.12759        31.17394         2.52479
H         27.55093        32.01221         2.81842
O         30.83829        11.92078        -1.78981
H         30.54925        12.81274        -2.10903
O         15.53352        19.86520         2.21526
H         15.86902        20.46654         2.93683
O         29.71481        16.39875         2.45403
H         30.54922        16.91087         2.72610
O         15.18046        21.88193        -0.88871
H         15.85735        21.28027        -1.29635
O         38.86896        29.59495        -0.62216
H         39.74830        29.19534        -0.77547
O          8.48236        25.77050        -3.06671
H          9.24895        26.35248        -2.87641
O         32.23780         7.93767         1.36052
H         31.48169         8.22100         1.92829
O         30.81225        14.73845        -1.61872
H         31.13184        15.64303        -1.86723
O         25.93921        10.20855         2.89211
H         25.86206         9.26106         3.13727
O         35.26271        27.18916        -2.96664
H         34.48379        27.71487        -3.27201
O         10.51870        20.01292         0.71925
H         11.25676        19.87178         1.36340
O         14.84673        10.63414        -2.50491
H         14.88227         9.72150        -2.86179
O         38.85441        15.47266         1.20254
H         39.64503        14.95442         0.93939
O         16.77063        19.82458        -1.24328
H         17.09984        19.08655        -1.79842
O         20.49302         6.74291         2.54619
H         19.54745         6.53178         2.71091
O         27.83254         7.72311        -1.43513
H         27.59763         8.66001        -1.60522
O         23.26459         6.78510         2.58584
H         22.35156         6.54966         2.87944
O         13.04224        20.01781         1.49784
H         13.82882        19.70203         2.01916
O         14.40070        29.24767        -0.82887
H         13.55238        29.58758        -1.20101
O         37.43471        19.64808        -1.88088
H         37.17547        20.43863        -2.41087
O         37.18401        25.26358         0.73199
H         36.41128        25.34517         1.32986
O         23.60672        14.01018         3.47883
H         24.06559        14.75343         3.94509
O         38.80231        19.41367         1.50924
H         38.13128        19.33572         2.22948
O         20.66967        23.19864         0.24949
H         20.71501        22.25084        -0.00261
O         12.68577        21.73253        -1.70620
H         13.65096        21.96187        -1.73187
O         37.58589        24.81756        -2.86613
H         36.64193        24.60730        -3.04628
O         26.86527        21.22406        -0.53727
H         26.85870        20.28855        -0.86221
O         28.00517        20.39873         2.85913
H         28.83922        20.02564         3.21635
O         27.16041        36.02644         1.31686
H         27.71143        35.33437         1.74420
O         23.78879        14.19454        -0.14605
H         24.45635        13.86262        -0.78333
O         26.65617        26.75018        -1.07622
H         25.79506        26.33379        -1.29204
O         18.64099        18.05273         3.21635
H         18.73729        18.87371         3.75574
O         31.48035        12.17868         1.79649
H         32.19320        12.57881         2.33801
O         11.70587        30.57434        -0.82370
H         11.57585        31.34717        -1.41527
O         24.73417        22.50271         3.44990
H         24.89529        23.39743         3.81738
O         31.24097        24.94821        -1.74998
H         31.95929        25.22710        -2.35777
O         19.53200        35.02159        -1.74642
H         19.58131        35.86907        -2.23904
O          6.87971        22.35424        -0.13597
H          7.55432        21.89885         0.41361
O         16.62863        27.19604         3.60995
H         17.45146        26.94840         4.08352
O         15.11139        15.01142         1.72589
H         14.82465        14.10638         1.97581
O         21.78444        12.08341         3.59650
H         22.48328        12.64891         4.00650
O         10.59271        32.04790         2.39154
H         10.47835        31.15208         2.78799
O         28.35693         5.80652         1.63571
H         28.30023         4.84510         1.81437
O         22.05454        31.03393        -0.58896
H         22.61726        31.78746        -0.95296
H          5.72501        18.63744        -3.10672
H          4.42048        20.79607        -3.10735
H          4.38369        23.24616        -2.95626
H          5.68425        25.39431        -2.64507
H          8.33860        14.39340        -3.17471
H          6.99980        16.49501        -3.06370
H          6.64855        27.52298        -1.67346
H          7.54142        29.57075        -0.78777
H         10.81765        10.26502        -3.09780
H          9.79416        12.37211        -3.57214
H          8.64616        31.67744        -0.08478
H          9.81670        33.93697         0.61772
H         12.60216         5.96000        -1.66847
H         11.69035         8.05324        -2.23664
H         11.27100        35.92187         1.06536
H         12.20297        38.22024         0.41681
H         14.54833         4.59585        -0.95498
H         14.18413        39.38914         0.36349
H         16.91839         4.60105        -0.70745
H         16.59531        38.98879         1.02973
H         19.44816         4.73725        -0.84326
H         19.20668        39.35389        -0.41814
H         21.84774         4.79623        -0.81332
H         21.71409        39.44070        -0.31914
H         24.23482         4.66161        -0.69512
H         24.26054        39.42901        -0.57269
H         26.64033         4.40258        -0.45139
H         26.70895        39.39621        -0.76200
H         29.18981         4.39845        -0.86891
H         29.26987        39.29034        -1.30496
H         33.61119         5.81323        -1.92702
H         31.49736         4.56779        -1.73880
H         33.73195        38.32872        -1.23157
H         31.55683        39.24637        -1.40461
H         34.80313         7.93258        -1.85332
H         36.14680         9.99774        -1.53111
H         36.22488        33.76667        -1.13892
H         34.92269        35.78619        -0.55845
H         37.37050        12.07744        -1.51124
H         38.67205        14.13805        -1.32460
H         38.22316        29.04184        -2.52736
H         37.49907        31.59624        -1.23745
H         40.01984        16.29400        -1.24402
H         41.35366        18.35530        -1.05167
H         41.26598        25.06340        -0.76243
H         40.03031        27.21706        -0.77590
H         42.57022        20.52067        -0.89872
H         42.53370        22.99478        -0.88532
