         630
 CSIRO Nanostructure Databank - Neutral Graphene Oxide Data Set
C         22.99992        27.39823        -0.24163
C         22.99676        28.78668        -0.25853
C         23.18567        31.66542        -1.15271
C         23.22908        33.01174        -1.38128
C         23.09500        36.01534        -1.29034
C         23.09433        37.38501        -1.34701
C         23.10010        40.35435        -1.42615
C         23.15797        41.68051        -1.66866
C         23.27403        44.62184        -2.02697
C         23.25484        46.00199        -1.97023
C         25.44250        24.59549        -0.08201
C         24.25038        25.26649        -0.15671
C         25.45140        27.40678        -0.35693
C         24.22336        26.69229        -0.26135
C         25.43972        28.83354        -0.39780
C         24.19833        29.51167        -0.32644
C         25.46942        31.68866        -0.30655
C         24.13456        31.00787        -0.17863
C         25.42718        33.17932        -0.15171
C         24.26875        33.84367        -0.87003
C         25.45763        35.96784        -0.58393
C         24.26522        35.25742        -0.90366
C         25.41051        37.45536        -0.35782
C         24.24740        38.16709        -1.01855
C         25.53583        40.27479        -0.98135
C         24.29022        39.56072        -1.15742
C         25.59983        41.70263        -1.14879
C         24.47340        42.38906        -1.89178
C         25.59483        44.57951        -1.28771
C         24.43349        43.89014        -1.68144
C         25.60521        46.01097        -1.25519
C         24.42116        46.72485        -1.60470
C         25.62154        48.82758        -1.38999
C         24.44729        48.14359        -1.64070
C         27.99254        23.19769         0.32626
C         27.93848        24.59036        -0.06162
C         26.69249        25.28540        -0.16014
C         27.92276        27.40897        -0.51484
C         26.69775        26.70032        -0.35509
C         27.91504        28.85449        -0.60867
C         26.68272        29.55242        -0.48170
C         27.92617        31.70652        -0.53846
C         26.66809        30.99510        -0.45844
C         27.93491        33.13578        -0.49514
C         26.72453        33.86807        -0.43844
C         27.95097        35.99742        -0.47105
C         26.70161        35.27784        -0.48608
C         27.95332        37.41515        -0.50982
C         26.72867        38.14668        -0.59925
C         28.02465        40.30140        -0.82161
C         26.72937        39.53354        -0.74731
C         27.85684        41.63982        -0.10957
C         26.73204        42.42426        -0.76583
C         27.95005        44.57331        -0.53651
C         26.78669        43.85516        -0.87408
C         28.01939        46.00452        -0.64294
C         26.80118        46.73855        -0.95454
C         28.10325        48.92659        -0.94342
C         26.80742        48.14349        -1.04011
C         27.98355        50.28352        -0.29286
C         30.43742        23.18531         0.27343
C         29.17864        22.56095         0.55647
C         30.40715        24.49081        -0.48203
C         29.14305        25.28499        -0.27693
C         30.40187        27.37220        -0.71629
C         29.15707        26.68798        -0.51698
C         30.34533        28.77427        -1.27226
C         29.13440        29.56291        -0.78764
C         30.38164        31.72536        -0.75656
C         29.14937        30.98831        -0.71768
C         30.40504        33.11871        -0.56545
C         29.17496        33.84715        -0.50300
C         30.42307        35.96414        -0.34590
C         29.17732        35.26704        -0.43950
C         30.42248        37.38236        -0.26532
C         29.20540        38.11868        -0.39793
C         30.40060        40.22340         0.00921
C         29.22279        39.52682        -0.33966
C         30.35453        41.68954         0.15265
C         29.16636        42.37733        -0.01181
C         30.42106        44.57465         0.15005
C         29.10903        43.84429         0.03338
C         30.53447        45.96778        -0.45465
C         29.22227        46.71360        -0.41881
C         30.36514        48.83192         0.14450
C         29.25389        48.13978        -0.34996
C         30.36593        50.26780         0.30755
C         29.07143        50.92564         0.18235
C         32.89537        20.54159         1.09439
C         31.75315        21.26085         1.14044
C         32.89336        23.20508         0.08952
C         31.65470        22.55635         0.49157
C         32.88926        24.60723        -0.21180
C         31.66648        25.30102        -0.33116
C         32.90685        27.41035        -0.65840
C         31.64022        26.69662        -0.59213
C         32.92381        28.82048        -0.80795
C         31.67499        29.53113        -1.15808
C         32.91741        31.70310        -0.57671
C         31.66469        31.02762        -0.97047
C         32.89255        33.10806        -0.38395
C         31.65652        33.82830        -0.43326
C         32.89537        35.95060        -0.13911
C         31.65320        35.23838        -0.29464
C         32.88759        37.37382        -0.04672
C         31.64636        38.09104        -0.07918
C         32.85463        40.16722         0.51618
C         31.60560        39.49395         0.12536
C         32.84784        41.67232         0.61344
C         31.60135        42.41656         0.32849
C         32.95670        44.51369         0.00709
C         31.65085        43.78440         0.24651
C         32.86505        45.97993         0.43285
C         31.68188        46.67441         0.21193
C         32.82643        48.85681         0.58434
C         31.52981        48.07731         0.74466
C         32.79734        50.31825         0.85911
C         31.52553        50.98862         0.66489
C         32.67843        53.12682         1.07666
C         31.56244        52.43621         0.74395
C         35.57030        19.05751         1.06622
C         35.33098        20.26509         0.23155
C         34.04956        21.03634         0.31829
C         35.32847        23.14519        -0.26853
C         34.09500        22.49071         0.04351
C         35.34125        24.53660        -0.48625
C         34.13561        25.27700        -0.42308
C         35.38189        27.41353        -0.59022
C         34.13374        26.70328        -0.57451
C         35.37366        28.83620        -0.54095
C         34.13440        29.54230        -0.65085
C         35.36248        31.68070        -0.28713
C         34.12979        30.98432        -0.54200
C         35.33874        33.07835        -0.08512
C         34.12296        33.80239        -0.15411
C         35.36751        35.94451         0.01613
C         34.11684        35.23146        -0.05451
C         35.34380        37.36884        -0.04925
C         34.13362        38.08338         0.01282
C         35.32681        40.21874         0.42138
C         34.14449        39.50168         0.26348
C         35.33573        41.63229         0.71992
C         34.14030        42.36643         0.58907
C         35.30223        44.44811         0.98266
C         34.15187        43.78543         0.58568
C         35.21349        45.88944         1.29551
C         34.01334        46.63425         0.91454
C         35.32134        48.80823         1.19496
C         34.09997        48.09061         0.79191
C         35.23097        50.26933         1.38168
C         33.95459        50.99179         1.17199
C         35.24423        53.18530         1.08887
C         33.95556        52.46853         1.53302
C         35.26864        54.57339         0.86929
C         37.68814        18.69359        -0.15825
C         36.70603        18.36045         0.94308
C         37.75809        20.19737        -0.39975
C         36.55398        21.00547        -0.17320
C         37.84109        23.09546        -0.43731
C         36.57029        22.38058        -0.33908
C         37.86884        24.50999        -0.58800
C         36.59283        25.22560        -0.98511
C         37.83641        27.39779        -0.66795
C         36.61615        26.70686        -0.66153
C         37.84632        28.81081        -0.51090
C         36.61920        29.54084        -0.43887
C         37.85267        31.67517        -0.18006
C         36.61437        30.96079        -0.28189
C         37.85675        33.08246        -0.00987
C         36.58516        33.78287         0.38916
C         37.84421        35.97487         0.10428
C         36.59632        35.26236         0.10703
C         37.86743        37.36454         0.01803
C         36.61328        38.08623        -0.15438
C         37.87109        40.24601         0.52123
C         36.61357        39.59832         0.08998
C         37.81828        41.61487         0.94269
C         36.56844        42.30975         0.96869
C         37.71363        44.41948         1.51256
C         36.53595        43.73132         1.19932
C         37.74791        45.88231         1.30967
C         36.49296        46.66254         1.48567
C         37.79220        48.83971         1.33554
C         36.51201        48.14187         1.35525
C         37.79304        50.29062         1.15153
C         36.52785        51.04290         1.34667
C         37.67363        53.16662         0.70938
C         36.47795        52.49204         1.02225
C         37.68797        54.56842         0.52444
C         36.45759        55.25340         0.61438
C         40.23533        15.96769         0.46535
C         39.05452        16.65943         0.22992
C         40.25677        18.78951         0.16396
C         39.04173        18.05629         0.09565
C         40.30255        20.20992        -0.00614
C         39.08576        20.93538        -0.38536
C         40.29387        23.09795        -0.18059
C         39.06119        22.40086        -0.29027
C         40.30447        24.51517        -0.34245
C         39.08775        25.20518        -0.59865
C         40.44205        27.40239        -0.98178
C         39.07189        26.63306        -1.13836
C         40.33274        28.81396        -0.43322
C         39.10591        29.51289        -0.39883
C         40.32299        31.62260        -0.12618
C         39.09848        30.93513        -0.22971
C         40.31952        33.09370        -0.21710
C         39.06125        33.83181        -0.04143
C         40.33819        35.96625         0.24736
C         39.09638        35.23432         0.09762
C         40.35513        37.38945         0.31295
C         39.14347        38.16044        -0.13200
C         40.30376        40.23402         0.78648
C         39.07958        39.55814         0.46957
C         40.27956        41.62990         1.13367
C         39.03619        42.28469         1.24680
C         40.30052        44.45655         1.79357
C         38.97910        43.68975         1.68730
C         40.27936        45.96217         1.76741
C         39.02216        46.64320         1.33423
C         40.24020        48.76772         0.91090
C         38.97831        48.12774         1.31291
C         40.22957        50.27814         0.72291
C         38.94741        50.98078         0.90312
C         40.19943        53.16238         0.78046
C         38.94426        52.40515         0.42609
C         40.20061        54.54443         0.60054
C         38.96618        55.26003         0.34895
C         40.25151        57.31152         0.04556
C         39.03255        56.62989         0.06311
C         42.68125        15.97621         0.81050
C         41.45754        16.66849         0.57056
C         42.71248        18.79632         0.49450
C         41.47620        18.08578         0.41950
C         42.73219        20.22301         0.36744
C         41.50623        20.93430         0.14335
C         42.75568        23.07014         0.10525
C         41.51969        22.36822         0.01754
C         42.77200        24.49901         0.00105
C         41.56191        25.22575        -0.24421
C         42.80609        27.34045        -0.12072
C         41.58696        26.63048        -0.34996
C         42.79575        28.77919        -0.06151
C         41.55098        29.49452        -0.17339
C         42.78100        31.59853         0.25738
C         41.55159        30.91699        -0.03527
C         42.72990        33.02825         0.60183
C         41.59594        33.83668         0.09883
C         42.77640        35.95310         0.68499
C         41.55430        35.26763         0.42403
C         42.77397        37.37883         0.74264
C         41.54413        38.09094         0.58962
C         42.77025        40.23087         0.93524
C         41.53670        39.52892         0.75427
C         42.76699        41.66427         1.06693
C         41.52934        42.36369         1.24087
C         42.77121        44.51139         1.30743
C         41.54837        43.76601         1.42700
C         42.80145        45.93933         1.39227
C         41.55900        46.70821         1.61423
C         42.69587        48.83862         1.05386
C         41.53365        48.12558         1.17443
C         42.68354        50.28914         0.92672
C         41.49245        50.99021         0.90360
C         42.72410        53.18204         1.05296
C         41.42821        52.44434         1.29116
C         42.68215        54.57135         0.91608
C         41.44906        55.26941         0.65747
C         42.70874        57.38654         0.37138
C         41.45903        56.65499         0.36156
C         43.87079        16.65873         0.85973
C         45.17460        18.78337         0.68652
C         43.92355        18.07405         0.68876
C         45.19275        20.20156         0.55070
C         43.96525        20.92909         0.41596
C         45.23103        23.05785         0.28400
C         43.98244        22.35368         0.28586
C         45.23552        24.46531         0.13299
C         44.02052        25.19231         0.05387
C         45.26984        27.35231         0.12668
C         44.02809        26.62973         0.02865
C         45.23619        28.76192         0.20356
C         44.01131        29.47958         0.16998
C         45.21288        31.64501         0.69471
C         43.99703        30.91907         0.36844
C         45.25607        33.02092         0.88438
C         43.99991        33.77749         0.93978
C         45.23260        35.93738         0.92831
C         44.00720        35.24470         0.81832
C         45.21762        37.36335         0.96307
C         44.00768        38.08026         0.89744
C         45.23762        40.24846         0.94437
C         43.99993        39.52663         0.95143
C         45.23221        41.67691         0.91320
C         43.99419        42.38248         1.04118
C         45.23240        44.53873         1.04347
C         44.00137        43.81331         1.11667
C         45.20885        45.95223         1.08875
C         43.99001        46.65374         1.22320
C         45.10341        48.79848         0.46136
C         44.02537        48.17057         1.35468
C         45.14221        50.30532         0.65087
C         43.95147        51.01230         0.90283
C         45.19811        53.12463         0.78488
C         43.96322        52.44412         0.96877
C         45.26378        54.57800         0.99959
C         43.92193        55.35985         1.04785
C         43.87605        56.78962         0.70814
C         47.60916        18.75443         0.75283
C         46.40603        18.08545         0.79420
C         47.65914        20.16199         0.62473
C         46.44223        20.90231         0.53922
C         47.71996        23.01956         0.52090
C         46.46693        22.32631         0.42409
C         47.75157        24.45891         0.39572
C         46.53703        25.17152        -0.15289
C         47.75133        27.34671         0.26803
C         46.52312        26.65302         0.14428
C         47.76770        28.77336         0.37875
C         46.51289        29.55025         0.09520
C         47.75915        31.59657         1.09070
C         46.45988        30.86542         0.84247
C         47.71737        33.07051         1.10997
C         46.50117        33.76478         0.99781
C         47.71706        35.93808         0.95016
C         46.47912        35.20423         1.01006
C         47.72483        37.35851         0.86330
C         46.48857        38.09799         1.29143
C         47.67637        40.23749         0.67692
C         46.47142        39.55163         0.91179
C         47.67859        41.67145         0.61193
C         46.46175        42.38769         0.79869
C         47.70337        44.50393         0.71124
C         46.48129        43.82191         0.86267
C         47.76775        45.96387         0.88524
C         46.46617        46.72683         1.08245
C         47.61310        48.78927         0.34157
C         46.45076        48.13987         0.67320
C         47.53008        50.22432        -0.03621
C         46.33503        50.99670         0.36983
C         47.61656        53.12807         0.15239
C         46.37591        52.41551         0.41414
C         47.59484        54.57423         0.21961
C         46.50269        55.26732         0.61793
C         50.15431        20.17423         0.53189
C         48.92491        20.85725         0.61299
C         50.20586        22.96166         0.87346
C         48.91869        22.28040         0.67590
C         50.20453        24.47644         0.80867
C         48.93976        25.16854         0.49073
C         50.23217        27.28212         0.43635
C         48.99368        26.60382         0.36622
C         50.22467        28.75008         0.29303
C         48.97016        29.49409         0.49583
C         50.26621        31.58529         0.83980
C         49.02906        30.89229         0.76508
C         50.30979        33.03155         1.14967
C         48.96773        33.80954         1.27178
C         50.16767        35.95626         0.78684
C         48.96419        35.25345         0.99085
C         50.12525        37.32431         0.43452
C         48.90915        38.05625         0.55930
C         50.06433        40.22740         0.12930
C         48.90292        39.51330         0.45003
C         50.10342        41.65726         0.14990
C         48.90007        42.37774         0.40031
C         50.13349        44.51695         0.19208
C         48.91467        43.80796         0.42134
C         50.13621        45.96617         0.14909
C         48.93880        46.69835         0.38578
C         50.09847        48.81419        -0.08044
C         48.89383        48.09928         0.24304
C         50.09404        50.23572        -0.22771
C         48.81464        50.97552        -0.27927
C         50.08195        53.09444        -0.21424
C         48.81185        52.44213        -0.10551
C         51.38674        20.86031         0.46999
C         52.77910        22.95890         0.41795
C         51.46607        22.22535         0.65031
C         52.72385        24.41805         0.89611
C         51.48218        25.11749         0.29692
C         52.72525        27.27201         0.59870
C         51.48521        26.61095         0.50237
C         52.73250        28.72917         0.80023
C         51.52042        29.49198         0.41851
C         52.75386        31.63526         0.65426
C         51.50882        30.93683         0.69347
C         52.73264        33.08218         0.57356
C         51.51753        33.77363         0.80303
C         52.70414        35.98252         0.35074
C         51.46937        35.24413         0.84997
C         52.61362        37.36213        -0.13686
C         51.30288        37.99351        -0.14597
C         52.54465        40.22970        -0.44060
C         51.26458        39.51749        -0.33450
C         52.54509        41.64900        -0.36994
C         51.32134        42.35947        -0.10725
C         52.57162        44.47769        -0.27355
C         51.33310        43.78692        -0.07451
C         52.59694        45.93193        -0.08811
C         51.33498        46.68495        -0.06225
C         52.55199        48.81862        -0.50483
C         51.33448        48.09988        -0.17977
C         52.52511        50.24270        -0.60468
C         51.28961        50.95344        -0.40230
C         51.24331        52.39337        -0.40176
C         55.17736        23.00225         0.94460
C         54.02238        22.30145         0.97144
C         55.21377        24.42855         0.63640
C         54.01963        25.15904         0.61971
C         55.21858        27.33725         0.61913
C         53.98387        26.59008         0.61281
C         55.27019        28.73807         0.55713
C         54.04059        29.50117         0.79546
C         55.19010        31.62540         0.17699
C         53.98652        30.94861         0.52189
C         55.15559        33.05716         0.00092
C         53.93544        33.75434         0.23720
C         55.05474        35.91719        -0.60129
C         53.83983        35.17104        -0.14681
C         55.02355        37.39009        -0.64547
C         53.76798        38.06502        -0.53434
C         54.95828        40.21414        -0.91046
C         53.73922        39.50892        -0.65882
C         54.94658        41.64033        -0.95455
C         53.75635        42.35682        -0.63468
C         54.95163        44.51079        -1.00424
C         53.76175        43.79212        -0.58472
C         54.94494        45.90165        -1.10071
C         53.86934        46.68734        -0.51463
C         54.91893        48.82150        -1.23737
C         53.75875        48.13096        -0.79249
C         54.86828        50.24438        -1.28997
C         53.71754        50.92563        -0.96811
C         57.65455        24.46959         0.10540
C         56.46848        25.11358         0.44578
C         57.76017        27.34105         0.24521
C         56.47558        26.57420         0.62150
C         57.65880        28.78549        -0.01383
C         56.47316        29.46730         0.20692
C         57.56905        31.61308        -0.46212
C         56.41084        30.91430        -0.01001
C         57.52029        33.03870        -0.67480
C         56.33147        33.74809        -0.39809
C         57.49901        35.92655        -1.04695
C         56.37710        35.25490        -0.30415
C         57.43037        37.33326        -1.24387
C         56.20939        38.07737        -0.96995
C         57.36287        40.19773        -1.52407
C         56.17568        39.49443        -1.13262
C         57.34603        41.62521        -1.61555
C         56.14337        42.35493        -1.31544
C         57.31506        44.47554        -1.80390
C         56.12495        43.76278        -1.40768
C         57.29394        45.88529        -1.93740
C         55.97967        46.61932        -1.92167
C         57.32523        48.73482        -1.87094
C         56.10160        48.09328        -1.60611
C         58.78762        25.18347        -0.36177
C         59.79201        27.29989        -1.20079
C         58.82416        26.56881        -0.40846
C         59.82625        28.65322        -1.22282
C         58.96597        29.47789        -0.28438
C         59.92389        31.63620        -1.09125
C         58.80865        30.92813        -0.67499
C         59.86509        33.02173        -1.33949
C         58.69346        33.74111        -1.13790
C         59.73497        35.88760        -1.96336
C         58.64476        35.19019        -1.38588
C         59.70185        37.26185        -2.11587
C         58.56607        38.02236        -1.74420
C         59.70222        40.19435        -2.21882
C         58.54697        39.47155        -1.83945
C         59.69870        41.57426        -2.27531
C         58.53303        42.32364        -1.97794
C         59.70261        44.50143        -2.36397
C         58.52848        43.76544        -2.04774
C         59.68927        45.87779        -2.42415
C         58.48049        46.59811        -2.21774
C         58.46835        48.02872        -2.22293
O         44.68036        55.04338         2.26067
O         53.33572        29.15047         2.05328
O         53.58719        46.37515         0.89508
O         49.74607        33.41072         2.45342
O         40.18775        49.37241        -0.43886
O         35.73642        46.21617         2.65008
O         38.81322        26.48704        -2.53766
O         57.45469        26.99221         1.63315
O         50.99473        38.61511        -1.45316
O         31.82674        30.41738        -2.32504
O         33.61514        48.53038        -0.57980
O         54.15773        35.32302        -1.58679
O         38.49059        46.14856         0.04316
O         32.74570        40.82782         1.82735
O         38.45496        20.46770        -1.65359
O         47.01235        30.89821         2.18109
O         34.34209        20.15299        -0.84632
O         36.66191        39.06506        -1.28101
O         33.11194        44.51089        -1.39673
O         39.64787        43.92241         2.98811
O         35.90543        50.70666         2.63817
O         50.22149        23.83375         2.09376
O         43.06364        33.31042         1.99517
O         52.44715        35.84020         1.78595
O         29.55666        44.46685         1.32026
O         50.99723        29.17056        -0.91478
O         47.95911        50.51093        -1.41176
O         47.33805        46.42508         2.21893
O         41.21566        33.57453        -1.28960
O         40.91681        46.54546         2.94599
O         25.17657        33.42413         1.28406
H         24.38350        32.87422         1.51455
O         24.77931        42.21955        -3.32160
H         24.97651        41.27001        -3.46771
O         44.38833        48.48753         2.71841
H         43.73684        48.06908         3.31948
O         46.56073        38.10856         2.77424
H         46.54748        37.17428         3.07506
O         40.96893        27.59223        -2.32543
H         40.25173        27.20723        -2.92005
O         59.68506        29.50932         0.99996
H         59.56552        28.63340         1.42698
O         37.15905        18.10326        -1.37390
H         37.53113        18.61845        -2.12408
O         28.47405        49.18700        -2.34225
H         29.40498        49.49586        -2.35048
O         36.54029        25.14897        -2.43958
H         37.37536        25.62440        -2.74974
O         39.31094        38.36950        -1.57853
H         38.45608        38.75004        -1.90031
O         56.59554        35.55622         1.11963
H         57.44834        35.15128         1.38527
O         30.84150        45.80202        -1.86300
H         31.73415        45.32680        -1.91828
O         52.97354        22.96915        -1.03005
H         53.06237        22.03906        -1.32597
O         25.15857        37.60923         1.09646
H         25.26911        38.56104         1.31027
O         23.59248        31.26413         1.18072
H         24.03226        30.63618         1.79307
O         33.94758        52.55265         2.99259
H         34.68908        51.97859         3.30745
O         28.28327        40.60743        -2.22427
H         28.47818        39.76719        -2.68917
O         41.24769        52.41756         2.77091
H         41.47434        53.31084         3.10938
O         46.59998        29.95769        -1.31941
H         46.57345        29.14587        -1.86942
O         38.97824        52.27407        -1.05147
H         39.57888        51.52949        -1.27677
O         52.62811        24.38471         2.33380
H         52.61290        25.30549         2.66800
O         55.47418        46.57256        -3.32337
H         56.16264        46.98639        -3.88723
O         36.54102        33.68159         1.87499
H         36.51789        32.72621         2.09805
O         51.42239        24.92718        -1.14013
H         52.28651        25.18725        -1.52277
O         31.30501        47.98914         2.18507
H         30.47652        47.48704         2.33737
O         30.10339        28.56815        -2.70415
H         30.52850        29.33267        -3.16307
O         27.44391        41.34898         1.25769
H         27.58523        42.15652         1.79573
O         44.70830        48.53420        -0.91180
H         45.34061        48.99262        -1.50524
O         30.37809        24.11276        -1.91505
H         30.38845        24.94443        -2.43664
O         46.67816        25.07522        -1.62932
H         47.56586        25.42557        -1.85957
H         22.05439        26.84156        -0.17728
H         22.04512        29.33289        -0.19355
H         22.42604        31.04694        -1.65295
H         22.45735        33.46447        -2.02307
H         22.17931        35.47040        -1.55924
H         22.18457        37.89504        -1.69606
H         22.11785        39.86408        -1.35929
H         22.21952        42.22961        -1.83104
H         22.37354        44.09382        -2.36834
H         22.34747        46.55499        -2.25262
H         25.42937        23.50238         0.01773
H         23.29881        24.71803        -0.10791
H         25.63356        49.92184        -1.48645
H         23.53437        48.69099        -1.91602
H         27.05838        22.65900         0.53091
H         27.01930        50.81110        -0.32447
H         29.16105        21.53349         0.94537
H         28.96625        51.95233         0.56141
H         32.93820        19.53774         1.53985
H         30.87711        20.85393         1.66420
H         32.61777        54.22362         1.12606
H         30.65458        53.00064         0.48588
H         34.81930        18.76843         1.81695
H         34.33910        55.15569         0.92650
H         36.89683        17.48260         1.57867
H         36.42182        56.34444         0.48974
H         40.22853        14.87332         0.56765
H         38.10763        16.11011         0.13536
H         40.27263        58.38398        -0.19508
H         38.11326        57.19167        -0.15253
H         42.66051        14.88492         0.94112
H         42.68435        58.45886         0.12785
H         44.79357        16.09158         1.03605
H         44.80031        57.38008         0.77017
H         48.53734        18.17523         0.84046
H         46.41824        16.99398         0.90246
H         48.50210        55.13369        -0.04404
H         46.55159        56.36109         0.70586
H         50.17290        19.08035         0.44482
H         50.14045        54.18913        -0.15183
H         52.30261        20.27529         0.29559
H         52.17887        52.96014        -0.49247
H         56.11949        22.51817         1.24175
H         54.01431        21.23938         1.25797
H         55.75019        50.81529        -1.60883
H         53.72290        52.02089        -1.03952
H         57.67178        23.37265         0.03462
H         57.40305        49.82607        -1.76524
H         59.61755        24.61278        -0.80440
H         60.49060        26.71956        -1.82339
H         60.57323        29.16426        -1.84801
H         60.88642        31.12130        -1.21411
H         60.78133        33.52688        -1.67229
H         60.63600        35.34601        -2.28008
H         60.58263        37.75892        -2.54318
H         60.63160        39.66342        -2.46220
H         60.62533        42.08613        -2.56531
H         60.64953        43.97666        -2.54590
H         60.61400        46.43220        -2.63906
H         59.40561        48.56714        -2.42124
