         314
 CSIRO Nanostructure Databank - Neutral Graphene Oxide Data Set
C         30.45191        56.95300        -1.23651
C         30.50289        58.31653        -1.68411
C         29.39326        58.91448        -2.33076
C         30.69818        60.89606        -2.85204
C         29.49956        60.19019        -2.89365
C         32.74405        52.74218         0.16048
C         32.48128        53.93932        -0.50953
C         31.40827        54.83988        -0.47535
C         32.83524        56.97014        -0.54861
C         31.57104        56.21872        -0.85500
C         32.83453        58.52521        -0.83809
C         31.70343        59.06318        -1.57933
C         33.06901        61.03343        -2.12630
C         31.83310        60.34268        -2.19510
C         35.15849        48.60202         1.16238
C         35.23941        50.08469         0.85294
C         34.07000        50.78004         0.58865
C         35.31769        52.88462         0.32016
C         34.05692        52.16782         0.28715
C         35.42428        54.30722         0.09764
C         34.39489        55.02055        -0.54627
C         35.29000        57.16703         0.08460
C         34.18270        56.39146        -0.37448
C         35.23329        58.64575        -0.09200
C         34.10919        59.22549        -0.84301
C         35.46841        61.17318        -1.53507
C         34.21310        60.48534        -1.48399
C         37.77755        44.35112         0.83921
C         37.73216        45.74020         0.99984
C         36.50770        46.41698         0.97693
C         37.76341        48.63760         0.97459
C         36.45072        47.86118         0.85656
C         37.66923        50.06900         1.35904
C         36.45320        50.80563         0.97056
C         37.74086        52.94057         0.98068
C         36.49284        52.20386         0.76895
C         37.73750        54.37428         0.91285
C         36.54748        55.07793         0.54020
C         37.70671        57.30847         0.70812
C         36.47760        56.51173         0.45735
C         37.81354        58.65175         0.06366
C         36.56821        59.40501        -0.17329
C         37.90957        61.19903        -1.24515
C         36.63981        60.63044        -1.00143
C         40.19701        40.01389         0.15112
C         40.17757        41.42197         0.63508
C         38.96679        42.24559         0.60753
C         40.26527        44.36277         0.94813
C         39.00226        43.61694         0.81965
C         40.27371        45.75686         1.12925
C         38.98586        46.45820         1.47020
C         40.23262        48.65858         1.28104
C         39.02275        47.93719         1.20708
C         40.22153        50.07497         1.28855
C         38.98024        50.82215         1.48487
C         40.19997        52.98517         1.40449
C         38.95359        52.27696         1.25364
C         40.15310        54.42262         1.41174
C         38.95540        55.08230         1.15819
C         40.26420        57.14079         0.57624
C         38.96308        56.56131         1.03694
C         40.28675        58.50800        -0.00737
C         39.01673        59.23759        -0.22333
C         40.36585        61.12757        -1.06361
C         39.10425        60.55955        -0.83516
C         42.71046        35.94103        -1.15449
C         42.66798        37.28641        -0.73970
C         41.46474        37.93902        -0.42602
C         42.64649        40.10821        -0.15264
C         41.36941        39.34228        -0.12275
C         42.69496        41.53872         0.23486
C         41.46510        42.18435         0.76374
C         42.73702        44.32010         1.01345
C         41.49675        43.66422         0.86992
C         42.74383        45.77062         1.04547
C         41.50292        46.48417         1.15653
C         42.71901        48.64240         1.20126
C         41.50674        47.92787         1.23348
C         42.75554        50.12667         1.08133
C         41.44789        50.86301         1.13290
C         42.67117        52.91167         2.10092
C         41.42449        52.29809         1.47637
C         42.70322        54.44508         1.94855
C         41.41161        55.18242         1.64404
C         42.70910        57.22231         1.04078
C         41.51377        56.54884         1.10577
C         42.70668        58.73691         0.81712
C         41.54114        59.25672         0.01978
C         42.83345        61.17356        -0.76550
C         41.58231        60.52349        -0.59481
C         45.00931        33.53847        -2.88622
C         43.86357        34.07584        -2.28539
C         45.14740        36.07318        -1.65840
C         43.88731        35.35916        -1.69929
C         45.23929        37.28569        -0.96028
C         43.94905        38.09542        -0.85281
C         44.93050        39.91639         0.68892
C         43.88378        39.32585         0.01998
C         45.09754        41.32997         0.87589
C         43.96186        42.14249         0.68956
C         45.13929        43.94091         1.77284
C         43.93343        43.47621         1.14037
C         45.22511        45.94880         0.47273
C         43.94279        46.54721         0.94594
C         45.22631        48.72175         0.97809
C         43.94832        47.94458         1.06996
C         45.26401        50.16767         1.33181
C         44.00834        50.88319         1.38633
C         45.24085        52.94374         1.95671
C         43.97302        52.22392         1.70428
C         45.24331        54.48200         1.91200
C         43.95983        55.17068         1.65162
C         45.22521        57.26810         1.32403
C         43.94401        56.51511         1.32967
C         45.24294        58.71466         0.80994
C         44.00513        59.30472         0.31870
C         45.30455        61.17375        -0.60601
C         44.04249        60.53787        -0.37022
C         46.20305        34.25137        -2.93107
C         47.47876        36.31837        -2.44684
C         46.31003        35.52863        -2.31610
C         47.59311        37.53944        -1.75930
C         46.52149        37.90944        -0.87872
C         47.72110        39.96553        -0.23166
C         46.77607        38.98279         0.00954
C         47.73445        41.26642         0.49239
C         46.42552        41.95949         1.04538
C         47.60608        44.23814         1.02173
C         46.40617        43.41794         1.36001
C         47.72007        45.69982         1.38848
C         46.46962        46.49026         1.17199
C         47.75386        48.58257         1.61262
C         46.52200        47.96927         1.03212
C         47.74985        50.07840         1.75880
C         46.47882        50.81928         1.53261
C         47.74889        52.92749         1.74151
C         46.53254        52.24900         1.71836
C         47.79476        54.42826         2.00753
C         46.51400        55.16414         1.62219
C         47.71902        57.28112         1.15840
C         46.51022        56.52874         1.32816
C         47.72744        58.62288         0.68898
C         46.52459        59.29976         0.40573
C         47.76183        61.26868        -0.43279
C         46.51804        60.58772        -0.22655
C         48.67246        38.48061        -1.92887
C         49.57565        40.86868        -1.54626
C         48.67457        39.70036        -1.27169
C         50.17768        41.52471        -0.31753
C         48.83802        42.16811        -0.04007
C         50.16392        44.22952         0.78218
C         48.83475        43.60964         0.42215
C         50.22627        45.69954         0.92938
C         49.00149        46.43926         1.21110
C         50.27851        48.53865         1.48132
C         48.99964        47.80316         1.40307
C         50.29909        50.03885         1.66017
C         49.02679        50.81886         1.68714
C         50.30308        52.94304         1.54540
C         49.00747        52.19882         1.65940
C         50.29970        54.45601         1.33214
C         48.99845        55.11144         1.39599
C         50.29445        57.27184         1.00485
C         48.98236        56.55718         1.34323
C         50.19360        58.69054         0.60645
C         48.98803        59.31888         0.43657
C         50.21170        61.37307        -0.28807
C         48.97134        60.69114        -0.07156
C         51.35455        42.18633        -0.24359
C         52.65679        44.30662         0.23280
C         51.46594        43.48360         0.47615
C         52.65590        45.68704         0.37447
C         51.42587        46.36217         0.76322
C         52.63178        48.58060         0.40106
C         51.40524        47.84323         0.77744
C         52.75694        50.02501         0.75676
C         51.55163        50.77533         1.24861
C         52.37922        52.85722         0.14758
C         51.43063        52.21746         0.94798
C         52.44856        54.29399        -0.02114
C         51.43408        55.08803         0.57696
C         52.57016        57.24614         0.00351
C         51.42747        56.50168         0.47672
C         52.64432        58.61647         0.15250
C         51.48873        59.43960         0.66056
C         52.67387        61.46414        -0.23393
C         51.44527        60.79882         0.00010
C         53.83330        46.45802         0.03306
C         54.95267        48.62831        -0.47298
C         53.86410        47.84866         0.01151
C         54.86749        50.03018        -0.66958
C         53.67916        50.72360        -0.16345
C         54.99129        53.00889        -1.35248
C         53.28770        51.97075        -0.56338
C         54.93129        54.30593        -0.93524
C         53.60676        54.98206        -0.71287
C         55.03572        57.15534        -0.62968
C         53.70319        56.48435        -0.59226
C         55.04056        58.62805        -0.57870
C         53.96432        59.33504         0.20166
C         55.14787        61.48910        -0.21098
C         53.91801        60.81552        -0.12803
C         56.02116        50.74663        -1.10916
C         57.39314        52.83789        -1.11276
C         56.16538        52.15760        -1.25212
C         57.45037        54.26178        -1.06201
C         56.18848        55.06753        -1.30514
C         57.50153        57.16058        -0.77239
C         56.21923        56.48911        -0.83220
C         57.57613        58.55524        -0.63151
C         56.35027        59.36154        -0.66448
C         57.63287        61.37815        -0.06701
C         56.39146        60.78667        -0.25555
C         58.64188        54.94311        -0.86290
C         59.93923        57.02887        -0.58499
C         58.71103        56.37794        -0.75443
C         60.01661        58.43437        -0.39161
C         58.81352        59.20652        -0.39291
C         60.10281        61.22970         0.06673
C         58.85214        60.62057        -0.14292
C         61.25373        59.10150        -0.18078
C         61.28438        60.47308         0.03643
O         48.64972        42.04987        -1.54916
O         37.14599        48.37171        -0.34241
O         35.71415        59.48007         1.00789
O         47.60106        49.16782         2.93567
O         53.79491        52.42611        -1.77306
O         52.70806        50.44934         2.14016
O         32.54561        57.94608         0.48051
O         47.43701        41.25515         1.89215
O         45.30642        45.30371        -0.55457
O         40.92011        41.52789         1.95301
O         50.52759        49.13374         2.79090
O         42.14847        50.58724        -0.18297
O         47.94305        44.33346        -0.46046
O         50.67014        53.83045         2.63456
O         45.19193        58.37947         2.27450
O         41.93302        55.08366         3.02346
O         45.96397        39.08785         1.13854
O         51.55182        48.39335        -0.59768
O         55.46619        59.20565        -1.84480
O         53.27645        55.85089        -1.86711
O         42.66535        41.17533        -1.19906
O         38.25182        57.28304         2.08601
O         45.24079        53.74514         3.19370
O         50.88221        43.50204         1.82692
O         38.19129        50.37722         2.67518
O         49.92668        57.08628         2.40504
O         46.04615        48.46056        -0.24409
O         40.33782        57.26932        -0.89533
O         46.93126        46.13621         2.53433
O         33.52224        54.33939        -1.38273
O         54.39452        59.23536         1.59962
H         53.62212        59.53278         2.14415
O         38.89357        46.36688         2.94886
H         38.89865        45.41229         3.17969
O         51.73373        59.69000         2.09996
H         51.32545        58.94836         2.60205
O         56.09114        55.19909        -2.77020
H         55.21485        55.61009        -2.95568
O         43.90993        38.66222        -2.22023
H         43.30922        39.44159        -2.22184
O         44.91425        44.79839         2.77660
H         45.75423        45.11411         3.19491
O         42.54751        59.28961         2.18216
H         43.38273        59.06973         2.66433
O         42.53731        52.62067         3.52187
H         42.12734        53.41618         3.93848
O         34.08243        47.99369         0.44001
H         34.29332        48.04997        -0.51504
O         47.91190        54.57651         3.45851
H         47.06565        54.24619         3.84435
H         29.49740        56.41813        -1.35352
H         28.44859        58.35748        -2.40505
H         30.77682        61.88747        -3.31964
H         28.62704        60.63314        -3.39419
H         31.91213        52.19531         0.62942
H         30.41687        54.51336        -0.12773
H         33.15179        62.02470        -2.59546
H         34.92397        48.47556         2.25383
H         33.11918        50.22742         0.58233
H         35.52622        62.10976        -2.10830
H         36.83907        43.80537         0.65827
H         35.56433        45.85002         0.96889
H         37.97151        62.15068        -1.79320
H         39.24125        39.46682         0.14662
H         37.99721        41.75958         0.42078
H         40.42618        62.11065        -1.55347
H         41.78908        35.33862        -1.12149
H         40.53027        37.35631        -0.46280
H         42.87571        62.15618        -1.25555
H         44.95490        32.54465        -3.35282
H         42.92360        33.50527        -2.29522
H         45.31209        62.16463        -1.08294
H         47.07914        33.82599        -3.44152
H         48.29231        35.97516        -3.10300
H         47.74710        62.27611        -0.87419
H         49.46286        38.25106        -2.65901
H         50.19909        40.79117        -2.46488
H         50.17939        62.37585        -0.74179
H         52.22730        41.83759        -0.81756
H         53.54149        43.81361        -0.19879
H         52.64978        62.52148        -0.54332
H         54.72532        45.89956        -0.28973
H         55.87489        48.10841        -0.77497
H         55.15881        62.59051        -0.22699
H         56.94689        50.15245        -1.19265
H         58.31715        52.26527        -0.93679
H         57.69623        62.44762         0.18600
H         59.58013        54.37298        -0.77299
H         60.86752        56.43790        -0.57774
H         60.15190        62.31102         0.25970
H         62.18705        58.52044        -0.18411
H         62.24811        60.97559         0.20017
