         430
 CSIRO Nanostructure Databank - Neutral Graphene Oxide Data Set
C         27.88480        27.41477         0.16283
C         27.87100        28.81282         0.00698
C         26.63978        29.56849         0.11640
C         27.80430        31.62428        -0.66947
C         26.60387        30.89981        -0.11039
C         27.82590        33.11195        -0.39534
C         26.65660        33.84434        -0.38266
C         27.84999        35.96193        -0.13736
C         26.66264        35.25108        -0.21221
C         27.86790        37.41516         0.02955
C         26.70094        38.13351         0.38139
C         27.90155        40.25318         0.21921
C         26.72009        39.51209         0.46601
C         27.90783        41.69865         0.28292
C         26.70915        42.43817         0.47792
C         27.93571        44.53449         0.40704
C         26.71883        43.81467         0.53161
C         27.95563        45.95736         0.45736
C         30.32893        27.36803         0.02764
C         29.07947        26.70753         0.14660
C         30.33950        28.79999        -0.10337
C         29.10241        29.51237        -0.16241
C         30.30488        31.64560        -0.27213
C         29.10034        30.92971        -0.31922
C         30.29485        33.08776        -0.24202
C         29.08895        33.79248        -0.26884
C         30.30524        35.93630        -0.39753
C         29.10089        35.24515        -0.22927
C         30.25868        37.39449        -0.62905
C         29.06065        38.13210        -0.18249
C         30.34750        40.26878        -0.25271
C         29.09992        39.54853        -0.09376
C         30.36136        41.68194        -0.07939
C         29.13597        42.39741         0.14287
C         30.38460        44.54640         0.10862
C         29.15398        43.82455         0.22012
C         30.38239        45.96733         0.18133
C         29.13730        46.64736         0.34392
C         32.75836        24.49893        -0.10419
C         31.60053        25.20810        -0.10535
C         32.81202        27.34671         0.06608
C         31.56416        26.64344         0.05772
C         32.82814        28.80818        -0.10130
C         31.56334        29.52332        -0.19942
C         32.79425        31.68123        -0.31643
C         31.55790        30.93831        -0.23950
C         32.82192        33.06771        -0.25792
C         31.56610        33.81999         0.11502
C         32.77628        35.92433        -0.49261
C         31.57253        35.26091        -0.34097
C         32.84331        37.35614        -1.00269
C         31.53995        38.14228        -0.85509
C         32.80436        40.26374        -0.45870
C         31.56973        39.58334        -0.50513
C         32.81713        41.69273        -0.32299
C         31.59360        42.40025        -0.15851
C         32.84005        44.54345        -0.14651
C         31.61241        43.83008        -0.06173
C         32.82612        45.96952        -0.09206
C         31.62636        46.68188         0.07713
C         32.80819        48.84249         0.16833
C         31.66450        48.12188         0.24715
C         35.37789        23.04581        -0.15088
C         35.33103        24.44725        -0.12563
C         34.05087        25.15486         0.29502
C         35.24760        27.36269        -0.26511
C         34.00732        26.63201         0.00464
C         35.28848        28.79124         0.21346
C         34.01309        29.50113        -0.15658
C         35.32281        31.65483        -0.29183
C         34.05520        30.92192        -0.65278
C         35.31997        33.06726        -0.30276
C         34.05682        33.79648        -0.34669
C         35.25961        35.96040        -0.33585
C         34.04254        35.21135        -0.39417
C         35.23785        37.36355        -0.28530
C         34.04304        38.10387        -0.47783
C         35.30025        40.21709        -0.39363
C         34.04570        39.50832        -0.43955
C         35.27958        41.66557        -0.64759
C         34.04195        42.42425        -0.40930
C         35.35382        44.53217        -0.22056
C         34.07798        43.82616        -0.31504
C         35.37874        45.98276        -0.08645
C         34.09363        46.70236        -0.29396
C         35.35498        48.92499         0.04111
C         34.08081        48.20853        -0.20302
C         35.43255        50.29010        -0.09066
C         37.81403        23.04354        -0.30295
C         36.59104        22.36205        -0.26928
C         37.79545        24.47572        -0.30613
C         36.54433        25.15420        -0.25017
C         37.80352        27.36203        -0.16277
C         36.55631        26.62017        -0.36942
C         37.78151        28.79336        -0.13272
C         36.56136        29.50973        -0.13595
C         37.78299        31.64601        -0.08478
C         36.54443        30.93455        -0.18066
C         37.77215        33.06994        -0.08655
C         36.54662        33.77038        -0.21652
C         37.77853        35.92073         0.14776
C         36.58679        35.25066        -0.49634
C         37.72299        37.37907         0.42150
C         36.45106        38.11347         0.12202
C         37.77762        40.24947        -0.13029
C         36.50916        39.55998        -0.17753
C         37.82586        41.64230        -0.22103
C         36.60528        42.40787        -0.52170
C         37.80616        44.47420         0.22530
C         36.54734        43.82731        -0.17124
C         37.81782        45.97334         0.34662
C         36.54506        46.68391         0.11488
C         37.87113        48.85804         0.29325
C         36.55143        48.14637         0.51695
C         37.87240        50.28295         0.23894
C         36.65411        50.97649         0.07901
C         40.33226        20.21901        -0.11263
C         39.14571        20.90179        -0.04938
C         40.27364        23.05946        -0.22918
C         39.09861        22.34466        -0.19721
C         40.28827        24.50302        -0.64516
C         39.01284        25.22587        -0.31565
C         40.27734        27.35845        -0.10347
C         39.02568        26.64019        -0.17454
C         40.26042        28.79531         0.01180
C         39.02770        29.50890        -0.06441
C         40.24498        31.65194         0.15078
C         39.01951        30.93306         0.00423
C         40.22274        33.07993         0.23623
C         39.00974        33.78238         0.09464
C         40.18296        35.90763         0.73989
C         38.95030        35.22226         0.28130
C         40.20420        37.42052         0.82510
C         38.98683        38.15442         0.41453
C         40.28795        40.21529         0.06497
C         39.00952        39.50613         0.13360
C         40.34135        41.64478        -0.44895
C         39.06301        42.39086        -0.15959
C         40.32551        44.54363        -0.33741
C         39.07306        43.75341        -0.02823
C         40.30388        46.00119         0.08287
C         39.11049        46.69960         0.22415
C         40.33914        48.84312         0.26356
C         39.09161        48.13974         0.28498
C         40.34906        50.27361         0.30956
C         39.12931        51.00234         0.29190
C         40.37051        53.10044         0.42033
C         39.17293        52.42141         0.34879
C         42.79661        20.26892        -0.30454
C         41.57681        20.91614        -0.15959
C         42.81127        23.12952        -0.25892
C         41.56226        22.38925         0.15256
C         42.79123        24.53553        -0.28421
C         41.54820        25.25200        -0.27632
C         42.78403        27.45280        -0.26799
C         41.50829        26.64474        -0.15911
C         42.70697        28.73563         0.56434
C         41.46583        29.52237         0.22481
C         42.72855        31.65018         0.40497
C         41.47652        30.92757         0.27329
C         42.73067        33.04949         0.45385
C         41.47553        33.79879         0.44200
C         42.70998        35.95840         0.67121
C         41.45817        35.16598         0.63889
C         42.62195        37.36704         0.10548
C         41.54171        38.16264         0.87162
C         42.73848        40.24345         0.16978
C         41.46278        39.56654         0.32336
C         42.75921        41.67107         0.18128
C         41.57694        42.39368         0.02224
C         42.79749        44.52866         0.20742
C         41.58137        43.81030         0.07133
C         42.79389        45.97613         0.16665
C         41.56069        46.69457         0.14661
C         42.81370        48.82409         0.30465
C         41.56938        48.12141         0.24355
C         42.82738        50.25455         0.38226
C         41.59361        50.97364         0.37266
C         42.84511        53.08305         0.51109
C         41.60220        52.39531         0.43357
C         44.00341        20.99104        -0.35702
C         45.29401        23.12896        -0.40400
C         44.03465        22.39900        -0.34893
C         45.28395        24.54881        -0.24112
C         44.04743        25.26537        -0.21306
C         45.27004        27.35493         0.15238
C         44.04911        26.65820        -0.03024
C         45.24960        28.75989         0.72659
C         43.98323        29.53139         0.47102
C         45.24615        31.64502         0.55155
C         43.98405        30.91133         0.47018
C         45.19730        33.07396         0.57635
C         43.98286        33.74988         0.53687
C         45.17062        35.90727        -0.12338
C         43.99937        35.23224         0.56560
C         45.15211        37.41214        -0.04408
C         43.95238        38.09471         0.08024
C         45.12955        40.25702        -0.48436
C         43.92821        39.51990         0.03863
C         45.25744        41.66349         0.02413
C         44.04263        42.35201         0.58118
C         45.26722        44.51030         0.28206
C         44.03591        43.83516         0.32284
C         45.27780        45.96030         0.25429
C         44.03067        46.67583         0.22973
C         45.28507        48.80959         0.36325
C         44.04216        48.10388         0.28883
C         45.29934        50.23154         0.47618
C         44.05774        50.96421         0.46726
C         44.03139        52.38721         0.53048
C         47.73530        23.18075        -0.44055
C         46.53042        22.48117        -0.54526
C         47.76378        24.56043        -0.20420
C         46.51543        25.26710        -0.15816
C         47.77217        27.45022        -0.13846
C         46.48928        26.67637         0.04009
C         47.70437        28.86393         0.37684
C         46.52040        29.53785         0.49312
C         47.73520        31.72491         0.57762
C         46.48726        30.98142         0.60086
C         47.74114        33.14063         0.59651
C         46.45878        33.83902         0.72456
C         47.72185        35.96723         0.03669
C         46.46181        35.32840         0.41510
C         47.64264        37.31971        -0.63008
C         46.39971        38.11820        -0.28047
C         47.64409        40.21439        -0.90577
C         46.41660        39.47692        -0.42212
C         47.67638        41.66414        -0.46829
C         46.46052        42.35317        -0.11928
C         47.73166        44.46369         0.04319
C         46.49686        43.77633         0.15022
C         47.78384        45.90332         0.49173
C         46.49246        46.65784         0.27964
C         47.76275        48.78527         0.39037
C         46.51720        48.08151         0.33922
C         47.73850        50.18660         0.56017
C         46.54735        50.88815         0.60698
C         50.24012        24.57361         0.20261
C         49.01841        25.26915         0.05556
C         50.23697        27.34889         0.45472
C         49.02550        26.67584         0.21201
C         50.24127        28.81327         0.69043
C         48.96606        29.57628         0.64481
C         50.19562        31.75258         0.49060
C         48.98247        31.04981         0.52964
C         50.19362        33.17380         0.46938
C         48.94803        33.87179         0.48845
C         50.17287        35.99629        -0.07422
C         48.92156        35.30054         0.20385
C         50.15812        37.35596        -0.40014
C         48.93165        38.09684        -0.51549
C         50.17597        40.22849        -0.65609
C         48.93543        39.47655        -0.64724
C         50.15215        41.64975        -0.64688
C         48.88930        42.36058        -0.50543
C         50.09943        44.54806        -0.80118
C         48.89370        43.78456        -0.32092
C         50.17178        45.98146        -0.33366
C         49.00647        46.66173         0.03379
C         50.23276        48.76642        -0.00343
C         49.01063        48.07544         0.17550
C         51.43178        25.24374         0.43233
C         52.70975        27.39089         0.76388
C         51.46392        26.64986         0.55930
C         52.68613        28.84837         0.74604
C         51.52102        29.54630         0.58209
C         52.65830        31.76919         0.97570
C         51.51484        31.02912         0.26103
C         52.69841        33.22165         0.56111
C         51.43458        33.92245         0.40603
C         52.66210        36.04855         0.03126
C         51.41846        35.29555         0.11298
C         52.67705        37.36935        -0.34204
C         51.42562        38.03619        -0.85078
C         52.63400        40.23702        -0.67213
C         51.41203        39.53376        -0.66581
C         52.62975        41.66140        -0.69802
C         51.38693        42.37519        -0.66716
C         52.60825        44.51758        -0.75899
C         51.39618        43.79653        -0.66338
C         52.61936        45.95577        -0.76660
C         51.39875        46.68405        -0.48967
C         51.40073        48.08597        -0.28878
C         55.16963        27.45252         0.74600
C         53.93777        26.74513         0.81822
C         55.20802        28.82996         0.76668
C         53.95917        29.57301         1.15500
C         55.14735        31.69384         0.53195
C         53.96715        31.03910         0.79789
C         55.15870        33.15030         0.36651
C         53.90209        33.87643         0.42452
C         55.17810        36.00621        -0.09005
C         53.93624        35.38882         0.50120
C         55.16174        37.43376        -0.36711
C         53.92499        38.12085        -0.44263
C         55.12201        40.24534        -0.77721
C         53.89806        39.52408        -0.64949
C         55.10471        41.68369        -0.90019
C         53.86273        42.38062        -0.81215
C         55.06476        44.52229        -1.04536
C         53.84810        43.80486        -0.86697
C         55.03581        45.94070        -1.12033
C         53.84711        46.62970        -0.97432
C         56.40510        29.57477         0.52346
C         56.38268        30.93633         0.42586
C         56.31974        33.84484         0.08009
C         56.31659        35.24514        -0.19159
C         56.36057        38.15743        -0.55745
C         56.34115        39.52531        -0.75302
C         56.30077        42.42866        -1.08130
C         56.28520        43.80478        -1.16018
O         49.53894        29.14644         1.96592
O         37.76548        45.12023         1.56514
O         46.41354        34.85531         1.78832
O         36.02267        42.08558        -1.83678
O         40.00337        36.61290         2.03560
O         34.07636        47.52887        -1.51992
O         43.58033        35.82379         1.83894
O         30.65790        37.83947        -1.99879
O         35.81275        27.11213        -1.58296
O         36.81899        37.77489         1.52760
O         47.93382        45.81418         1.95959
H         47.91364        46.73007         2.31071
O         51.45666        37.83698        -2.32601
H         51.71938        36.90538        -2.48684
O         42.16619        37.25387        -1.26632
H         42.88948        36.85219        -1.79569
O         34.08795        30.81787        -2.12793
H         33.28859        30.31951        -2.40233
O         44.13758        42.19600         2.05329
H         43.31573        42.56588         2.44059
O         40.44301        41.60390        -1.91439
H         41.23735        41.07364        -2.14194
O         45.08159        35.55805        -1.53851
H         45.82508        36.02658        -1.99651
O         42.85803        27.89699        -1.65836
H         42.92840        27.10054        -2.22547
O         47.51105        40.24507        -2.38645
H         47.56996        39.30891        -2.68733
O         45.26505        28.53314         2.18417
H         44.37182        28.17782         2.42079
O         44.84087        40.43645        -1.93155
H         45.71577        40.59482        -2.37528
O         35.29140        28.68914         1.68319
H         35.33354        29.59867         2.04731
O         47.88335        27.63834        -1.61069
H         47.87514        26.74416        -2.01598
O         36.40024        48.07707         1.99382
H         37.05004        47.41653         2.32184
O         27.68356        31.51160        -2.13831
H         27.69444        30.55497        -2.35531
O         36.86140        35.35536        -1.95230
H         36.08966        34.97452        -2.42484
O         42.56050        28.30418         1.96337
H         42.30078        29.08878         2.49198
O         53.91589        29.52095         2.62657
H         53.14233        30.07422         2.89823
O         33.10371        37.21839        -2.43563
H         32.21865        37.22988        -2.87376
O         41.59227        22.44826         1.64247
H         42.38476        21.94607         1.93079
O         49.88253        44.65482        -2.26595
H         50.67876        45.08427        -2.64614
O         54.01411        35.67072         1.95340
H         54.90244        35.38298         2.25430
O         34.10216        25.06315         1.77766
H         33.33107        25.56073         2.12540
O         52.31241        31.74774         2.39719
H         52.85383        32.42711         2.85195
O         41.96022        38.28670         2.23991
H         41.55917        37.53506         2.73640
O         47.46817        37.04536        -2.08899
H         48.29943        36.62531        -2.40215
O         51.80456        31.14679        -1.16433
H         51.10473        30.67339        -1.66081
O         40.32031        24.46532        -2.13819
H         40.06640        25.35876        -2.45591
O         40.37196        44.58508        -1.81009
H         40.40262        43.64677        -2.12147
O         31.57214        33.88781         1.59435
H         31.53541        32.96526         1.92613
H         26.93454        26.87991         0.30468
H         25.73090        29.03150         0.42835
H         25.65092        31.43874        -0.01142
H         25.68528        33.34551        -0.50221
H         25.69677        35.77253        -0.17569
H         25.76309        37.59964         0.58481
H         25.79158        40.03063         0.73760
H         25.74901        41.91471         0.57359
H         25.78005        44.36955         0.67177
H         27.00782        46.49969         0.58586
H         29.04753        25.61765         0.27680
H         29.10948        47.74397         0.37749
H         32.72485        23.41283        -0.26973
H         30.66010        24.67972        -0.31826
H         32.80097        49.91176         0.42412
H         30.74023        48.64644         0.52291
H         34.45453        22.45951        -0.05027
H         34.53899        50.86894        -0.36605
H         36.56614        21.26440        -0.28267
H         36.64509        52.06972        -0.01135
H         40.33724        19.11901        -0.14316
H         38.20864        20.33253         0.00709
H         40.38092        54.19868         0.47159
H         38.24112        53.00173         0.35094
H         42.82350        19.17240        -0.39129
H         42.84652        54.18162         0.55637
H         44.93925        20.42318        -0.44141
H         44.97146        52.95122         0.58888
H         48.67147        22.61290        -0.52419
H         46.57409        21.39694        -0.71341
H         48.67795        50.74750         0.65039
H         46.58910        51.97731         0.73587
H         50.26411        23.47869         0.12303
H         50.27252        49.85903         0.09535
H         52.35509        24.65585         0.52039
H         52.33273        48.65854        -0.38152
H         56.09745        26.88114         0.59227
H         53.98328        25.64764         0.79981
H         55.97542        46.48844        -1.28033
H         53.86802        47.72652        -1.02164
H         57.34902        29.02720         0.38141
H         57.32415        31.46577         0.23118
H         57.27866        33.32004        -0.01342
H         57.26083        35.69490        -0.52901
H         57.32920        37.64168        -0.51612
H         57.29830        40.05084        -0.86281
H         57.26415        41.90981        -1.16947
H         57.22207        44.36105        -1.30717
