         273
 CSIRO Nanostructure Databank - Neutral Graphene Oxide Data Set
C        -11.20738         0.65503        -0.20700
C         -9.91138         1.34732         0.19615
C         -8.81070         0.60652        -0.62097
C         -7.45881         1.25592        -0.48400
C         -6.27917         0.62855        -0.10980
C         -4.97973         1.31516        -0.07743
C         -3.81863         0.67143         0.27427
C         -2.54251         1.37708         0.25339
C         -1.35008         0.69728         0.23583
C         -0.16348         1.42399        -0.35272
C          1.17340         0.72121        -0.12293
C          2.38246         1.36856        -0.79453
C          3.63618         0.54477        -1.10400
C          4.98352         1.35796        -1.11779
C          6.28685         0.63957        -0.88737
C          7.60747         1.44706        -0.81298
C          8.76482         0.72831        -0.06544
C         10.10110         1.47762        -0.32314
C         11.22522         0.63496         0.27121
C         -9.86316         2.83788        -0.09135
C         -8.73045         3.50484        -0.48179
C         -7.48654         2.72281        -0.87858
C         -6.28783         3.29026        -0.12926
C         -4.93213         2.75537        -0.56589
C         -3.82142         3.59905         0.02323
C         -2.55640         2.87014         0.36433
C         -1.23671         3.61683         0.64707
C          0.01068         2.83570         0.21715
C          1.28808         3.54581        -0.08229
C          2.41928         2.86676        -0.83626
C          3.70726         3.64464        -1.10382
C          5.01926         2.88376        -1.14588
C          6.28829         3.57100        -0.69660
C          7.40878         2.87921        -0.33923
C          8.57172         3.52709         0.41578
C          9.91570         2.87138         0.22513
C         -8.66792         4.95970        -0.44207
C         -7.55316         5.78856        -0.61118
C         -6.24406         5.32809        -1.17350
C         -4.99441         5.81525        -0.49838
C         -3.84552         5.07139        -0.21326
C         -2.57697         5.81067        -0.04088
C         -1.27317         5.10750         0.15176
C         -0.05675         5.74302        -0.49023
C          1.23074         5.00992        -0.37242
C          2.53787         5.70625        -0.07108
C          3.64338         5.20081        -1.00427
C          4.98653         5.83267        -0.61318
C          6.27287         5.06224        -0.56997
C          7.49605         5.73901        -0.04481
C          8.59778         5.03031         0.26143
C         -7.51884         7.17518        -0.26857
C         -6.29807         7.89444        -0.21205
C         -5.05247         7.22609        -0.30600
C         -3.78797         7.98987         0.01101
C         -2.58193         7.23306        -0.51196
C         -1.30956         7.98395        -0.68053
C          0.03463         7.26907        -0.80463
C          1.22421         7.93131        -0.13590
C          2.43962         7.21880        -0.04030
C          3.65030         7.89829         0.17173
C          4.92706         7.13709         0.14882
C          6.21372         7.87785         0.38006
C          7.52773         7.26187        -0.10286
C         -6.24463         9.32438         0.11944
C         -5.10705        10.05237         0.03535
C         -3.85031         9.42464        -0.53724
C         -2.51053        10.10808        -0.27666
C         -1.33195         9.44728        -0.40050
C          0.01703        10.15254        -0.44889
C          1.22214         9.33643         0.00066
C          2.42247         9.99287         0.31453
C          3.64836         9.29629         0.38233
C          4.91786         9.98972         0.54889
C          6.11131         9.34871         0.51704
C        -11.27855        -0.68518        -0.29133
C        -10.12120        -1.50029         0.25008
C         -8.79680        -0.91655        -0.35129
C         -7.60763        -1.44999         0.41987
C         -6.28301        -0.76778         0.35212
C         -5.14074        -1.42903         0.73345
C         -3.80966        -0.84324         0.32471
C         -2.56839        -1.41190         1.00647
C         -1.27928        -0.70059         0.72442
C         -0.02508        -1.49032         0.57514
C          1.22501        -0.69498         0.36995
C          2.55478        -1.39803         0.29401
C          3.76849        -0.74209        -0.29377
C          5.00452        -1.60067        -0.63775
C          6.26100        -0.77751        -0.37486
C          7.55622        -1.50516        -0.18932
C          8.81983        -0.74748        -0.45294
C         10.11681        -1.48919        -0.43747
C         11.26531        -0.70348         0.10724
C        -10.05623        -3.00983        -0.00456
C         -8.87948        -3.67838         0.09774
C         -7.61608        -2.94867         0.43956
C         -6.23897        -3.52708         0.10940
C         -5.22097        -2.92686         1.11193
C         -3.85673        -3.65119         1.20956
C         -2.54991        -2.90276         1.24221
C         -1.23416        -3.63496         1.10361
C         -0.01605        -2.85014         0.72194
C          1.25806        -3.61730         0.62730
C          2.48666        -2.89274         0.17300
C          3.74219        -3.65509        -0.06894
C          5.02738        -2.90204         0.22583
C          6.30199        -3.72366        -0.04719
C          7.59918        -3.00970        -0.19719
C          8.81443        -3.72107        -0.69703
C         10.14261        -3.02979        -0.36901
C         -8.76891        -5.19010         0.18176
C         -7.49569        -5.70033        -0.60622
C         -6.20831        -5.04033        -0.06740
C         -5.05083        -5.83097         0.43986
C         -3.85591        -5.16463         1.06687
C         -2.55301        -5.91694         0.88488
C         -1.25539        -5.14490         0.91581
C         -0.09360        -5.77036         0.19508
C          1.23343        -5.10649         0.39367
C          2.41465        -5.76486        -0.25717
C          3.74056        -5.14286         0.04929
C          4.97493        -5.88093        -0.33232
C          6.18171        -5.07368        -0.68680
C          7.42609        -5.77250        -1.15826
C          8.72672        -5.03557        -1.03548
C         -7.32891        -7.17874        -0.71504
C         -6.50713        -7.97704         0.24959
C         -5.13247        -7.32731         0.52287
C         -3.84020        -8.04451         0.29258
C         -2.55687        -7.28900         0.28739
C         -1.41175        -7.95080        -0.08187
C         -0.14025        -7.20544        -0.26636
C          1.12003        -7.96159        -0.48794
C          2.37993        -7.20515        -0.67204
C          3.66744        -7.93718        -0.80973
C          4.88444        -7.27621        -0.81258
C          6.13380        -7.94472        -1.13242
C          7.33480        -7.25365        -1.23615
C         -6.34153        -9.43995        -0.12530
C         -5.17332       -10.04710        -0.38683
C         -3.88908        -9.27666        -0.58891
C         -2.59886       -10.05549        -0.50123
C         -1.42126        -9.39282        -0.35629
C         -0.10771       -10.16635        -0.35198
C          1.14308        -9.33440        -0.58090
C          2.37753       -10.02182        -0.86927
C          3.59940        -9.36554        -0.99983
C          4.84980       -10.04659        -1.26112
C          6.03957        -9.37915        -1.33459
O          5.74591         0.78056        -2.22997
O          7.21720        -3.63764         1.09448
O         -4.48756        -8.03449         1.61022
O          1.51263        -4.57990         1.70840
O          1.98679         2.11158        -2.00457
O         -9.68732         1.21143         1.60987
H         -8.98386         1.83678         1.88117
O         -9.27087         0.80825        -1.98591
H         -8.49267         0.99587        -2.56446
O          9.51492        -1.02037        -1.70296
O         -5.90874        -2.99062        -1.20386
H         -6.58109        -3.34543        -1.83270
O         -3.23606        -3.25205         2.47505
O          5.85324         5.80632        -1.79703
O          2.92000        -3.24739        -1.19556
O          4.56084        -5.72762         1.08658
O         -6.42927         3.79780         0.97494
O         -7.38916         2.84917        -2.36350
O         -1.92118        -0.71577         2.08524
O         -1.85495         5.87286         1.26423
O         -5.11283        -5.41929        -0.97880
O         -5.76790        -3.12947         2.42362
H         -5.05041        -2.94407         3.07241
O         -0.35500        -6.06213        -1.20205
O          1.32811         0.44460         1.28776
O          2.25750        -6.09209        -1.65703
O          5.59820         7.09755         1.45685
O         -3.54202         3.24491         1.41279
O          4.35679         3.32231        -2.37172
O          1.06238         3.00308         1.22753
O          3.53989        -0.71286         1.12842
O         10.45041         1.59519        -1.72107
H         10.23989         0.73159        -2.14984
O         -6.15079         4.88092        -2.32067
O         -7.66356        -5.15942        -1.93881
H         -6.90601        -5.48018        -2.47531
O         -0.51513         1.53138        -1.74707
H          0.25133         1.91175        -2.24307
O         -3.64400         8.10918         1.44574
H         -3.48267         7.21674         1.82180
O         -3.26724        -5.87050         2.16974
O          6.48973        -5.08899        -2.10228
O          0.51626         5.06838        -1.65605
O         -3.95068        -8.72663        -1.94735
H         -3.90102        -9.47488        -2.57822
O         -6.88668         1.61250        -2.93510
H         -5.89826         1.69358        -2.77263
O          3.42783         0.06996        -2.45280
H          3.28206         0.85900        -3.02364
O          8.06285         1.57762        -2.17098
H          7.26965         1.71019        -2.74108
O         -7.79412        -2.16762         1.67266
O          5.04792        -2.01734        -2.00055
H          4.60002        -1.33514        -2.55910
O          8.27274         3.36029         1.85222
H          8.41641         2.40122         2.06032
O         -2.15587         7.55218        -1.85927
O          8.61878         0.79776         1.36883
H          7.86037         0.22367         1.64344
O          4.96246        -2.64112         1.62372
H          5.87326        -2.71007         1.99445
O          6.81255        -0.95981         0.95877
O         -8.63808        -1.54723        -1.65170
H         -9.12365        -0.96582        -2.28924
O         -7.17625        -7.95186         1.53929
H         -6.52317        -8.25840         2.20699
O         -0.96286        -4.56506         2.19964
O          3.30410         5.68315        -2.30242
H          4.00198         5.36925        -2.91994
O         -1.11778         3.67330         2.07284
H         -2.00205         3.91553         2.43091
O          7.80015         7.69165        -1.44129
H          7.18953         7.19468        -2.03529
O          0.38870         7.42788        -2.20279
H         -0.33986         7.04132        -2.73801
O         -0.16229       -11.23882        -1.29796
H         -0.18394       -10.85319        -2.19760
O         10.51032        -3.42965         0.95932
H          9.70695        -3.44157         1.52113
O          2.93625         5.25110         1.24368
H          2.25823         5.50239         1.90576
O         -4.05696         9.41547        -1.96672
H         -3.31891         8.89893        -2.37039
O        -10.24254        -1.33958         1.67317
H         -9.45105        -1.73872         2.10572
O         -3.62357        -1.30073        -1.06587
H         -4.46199        -1.72606        -1.37629
O         -4.72311         2.70816        -1.99520
H         -5.06225         3.55797        -2.39181
O          0.26255        10.45510        -1.83937
H          0.38362         9.59356        -2.30278
O         -8.66760        -5.54981         1.55139
H         -8.22482        -4.83328         2.05185
H         12.12885        -1.27942         0.47321
H         12.09367         1.14955         0.71111
H         10.77214         3.37278         0.70554
H          9.51479         5.55059         0.57885
H          8.36296         7.63787         0.54154
H          7.04704         9.92613         0.55680
H          4.89049        11.08518         0.64843
H          2.42297        11.08765         0.42615
H         -0.02990        11.12482         0.10077
H         -2.49885        11.19704        -0.10520
H         -5.11648        11.12556         0.28016
H         -7.17923         9.80300         0.45107
H         -8.45606         7.68711         0.00000
H         -9.58832         5.45092        -0.08123
H        -10.74664         3.42847         0.20414
H        -12.05561         1.28081        -0.52562
H        -12.20255        -1.18308        -0.62418
H        -10.99172        -3.57574        -0.14533
H         -9.67096        -5.68686        -0.25171
H         -7.68633        -7.65826        -1.63832
H         -7.25699       -10.04859        -0.05814
H         -5.15715       -11.13171        -0.58261
H         -2.59874       -11.14241        -0.67765
H         -0.00592       -10.64991         0.66038
H          2.33620       -11.11549        -0.97966
H          4.82623       -11.13610        -1.41174
H          6.96329        -9.93507        -1.55386
H          8.25773        -7.81835        -1.43988
H          9.64778        -5.59872        -1.25542
H         10.94533        -3.39817        -1.05742
