         324
 CSIRO Nanostructure Databank - Neutral Graphene Oxide Data Set
C          1.16326         3.43900        -0.27479
C         -0.01844         4.11293        -0.35805
C          1.07543         6.30295        -0.26184
C         -0.05208         5.55609        -0.40989
C          1.04668         7.79288        -0.38464
C         -0.15093         8.57395        -0.05195
C          1.13097        10.69670         0.10700
C         -0.09968         9.92694         0.07686
C          1.00552        12.15080         0.42193
C         -0.09496        12.78689         1.04863
C          1.05997        14.97429         1.08538
C         -0.09750        14.17022         1.26381
C          1.08988        16.43070         1.06885
C         -0.01911        17.20794         1.29730
C          1.13277        19.28862         0.67304
C         -0.02033        18.60890         1.03320
C          1.13054        20.72144         0.39296
C         -0.06655        21.40959         0.08644
C          1.16870        23.48459        -0.24824
C         -0.04409        22.75425        -0.22928
C          1.18841        24.88927        -0.59574
C          0.04746        25.50312        -1.24040
C          1.09322        27.72356        -1.25924
C          0.03559        26.79783        -1.66126
C          1.28686        29.01760        -1.93192
C          3.61449         3.48913        -0.29127
C          2.41923         4.14938        -0.19995
C          3.63696         6.37493        -0.23480
C          2.37432         5.62160         0.13701
C          3.61841         7.74416        -0.17859
C          2.36281         8.55262        -0.30893
C          3.65506        10.57607         0.43760
C          2.34211        10.00386         0.00212
C          3.94954        11.98036         0.19758
C          2.06851        13.02875         0.14092
C          3.59750        14.92579         0.89230
C          2.24343        14.31072         0.67507
C          3.60995        16.45457         1.04766
C          2.34130        17.06428         0.45255
C          3.59754        19.23896         0.62889
C          2.38827        18.57138         0.59655
C          3.58638        20.71412         0.76236
C          2.34546        21.43347         0.40386
C          3.63455        23.54334         0.08360
C          2.38034        22.81935         0.10123
C          3.62495        24.94672        -0.17424
C          2.38141        25.61231        -0.45336
C          3.61197        27.80803        -0.73292
C          2.35388        27.07154        -0.63160
C          3.65253        29.11725        -1.23608
C          2.45758        29.69377        -1.83453
C          6.06432         3.45027        -0.45309
C          4.88831         4.17319        -0.39961
C          6.08309         6.30056        -0.65062
C          4.88601         5.63487        -0.44464
C          6.16173         7.76557        -0.50356
C          4.89699         8.48871        -0.19490
C          6.25715        10.45000         0.86255
C          4.93483         9.76515         0.57680
C          6.25059        12.01893         1.05534
C          5.01260        12.70380         0.62323
C          6.14641        14.97992         0.47354
C          4.91313        14.19692         0.75101
C          6.12327        16.42818         0.41308
C          4.89546        17.14577         0.58541
C          6.11926        19.29364         0.46910
C          4.88159        18.54721         0.56263
C          6.14538        20.70606         0.48516
C          4.89393        21.46402         0.68193
C          6.10210        23.58116         0.20091
C          4.87152        22.88999         0.30279
C          6.08895        24.99829         0.00559
C          4.85174        25.66826        -0.13572
C          6.14551        27.87966        -0.41442
C          4.81727        27.14021        -0.24135
C          6.12568        29.21573        -1.05931
C          4.88909        29.80721        -1.37127
C          8.63993         3.39753        -0.64551
C          7.33918         4.05862        -0.85713
C          8.62653         6.32949        -0.94875
C          7.32127         5.58935        -1.00452
C          8.65401         7.69627        -0.38431
C          7.44942         8.38192        -0.10876
C          8.74797        10.14798         0.82985
C          7.47170         9.64043         0.53629
C          8.69981        12.35327         0.93530
C          7.43542        12.88398         0.80429
C          8.57724        14.94143        -0.03309
C          7.33061        14.25532         0.35955
C          8.58576        16.46568        -0.06439
C          7.33134        17.16172         0.25650
C          8.60150        19.29795         0.25824
C          7.36224        18.58378         0.33860
C          8.61160        20.72408         0.29919
C          7.36198        21.43050         0.37137
C          8.58568        23.57220         0.26750
C          7.35457        22.86243         0.29949
C          8.58943        24.98516         0.06512
C          7.35070        25.70941        -0.12311
C          8.60555        27.78039        -0.74443
C          7.35658        27.06498        -0.47030
C          8.58878        29.25715        -0.96699
C          7.34501        29.86846        -1.29544
C         11.11151         3.38886        -0.59481
C          9.85949         4.06067        -0.71660
C         11.15980         6.22888        -0.45645
C          9.92075         5.53712        -0.88109
C         11.17417         7.63096        -0.32277
C          9.90726         8.33682        -0.22655
C         11.07489        10.53742        -0.10036
C          9.92553         9.65965         0.26440
C         11.03840        12.05232        -0.05273
C          9.88576        12.90122         0.37674
C         11.11839        14.98414         0.03682
C          9.87135        14.24809         0.05819
C         11.09599        16.44351         0.15927
C          9.88006        17.16150         0.12581
C         11.10088        19.27683         0.25266
C          9.86517        18.57885         0.21261
C         11.13186        20.76196        -0.02720
C          9.83784        21.46366         0.29420
C         11.10183        23.59984         0.44986
C          9.84175        22.86397         0.34168
C         11.03784        25.03396         0.43983
C          9.82640        25.68523         0.15308
C         10.95334        27.98841         0.22430
C          9.85659        27.10570        -0.25632
C         10.98208        29.41418        -0.30959
C          9.78504        29.94678        -0.99405
C         13.58480         3.40252        -0.65405
C         12.34725         4.07850        -0.53955
C         13.60735         6.21772        -0.20402
C         12.36954         5.51563        -0.37100
C         13.63847         7.65491        -0.04179
C         12.39585         8.32717        -0.09716
C         13.68128        10.55071        -0.16110
C         12.38076         9.80106        -0.26406
C         13.62678        12.06353        -0.08826
C         12.32769        12.81829        -0.14314
C         13.51315        14.93782         0.70568
C         12.28836        14.27004         0.17218
C         13.57916        16.40774         0.40344
C         12.32841        17.14161         0.31975
C         13.56657        19.30108         0.54304
C         12.30453        18.56193         0.34051
C         13.58252        20.77876         0.41747
C         12.39878        21.49251         0.40239
C         13.65655        23.71752         0.56254
C         12.34505        22.92850         0.53748
C         13.52695        25.13075         1.20400
C         12.21914        25.82244         0.90645
C         13.50391        28.08915         0.46997
C         12.20306        27.33040         0.72275
C         13.47563        29.32807        -0.34292
C         12.29758        29.98820        -0.60884
C         16.03949         3.39007        -0.91910
C         14.80376         4.10413        -0.65940
C         16.06227         6.27949        -0.44523
C         14.81218         5.50541        -0.39324
C         16.12059         7.63702         0.18603
C         14.89234         8.36663         0.22567
C         15.84826        10.59933         0.97063
C         14.85557         9.81479         0.39013
C         15.92780        12.03924         0.85912
C         14.80320        12.78774         0.42094
C         16.03166        14.87012         0.64714
C         14.79945        14.17901         0.50304
C         16.05906        16.29236         0.54350
C         14.81264        17.03283         0.41679
C         16.13832        19.21384         0.33301
C         14.84328        18.50883         0.52856
C         16.12990        20.64249         0.72270
C         14.92754        21.47888         0.28935
C         15.98196        23.25053         1.60155
C         14.86614        22.84852         0.94023
C         16.07314        25.41427         1.44206
C         14.76086        26.12527         1.44201
C         15.86727        27.70989        -0.16770
C         14.74557        27.30101         0.49995
C         15.88377        29.01605        -0.82627
C         14.72617        29.77752        -0.88566
C         18.51769         3.34336        -1.19313
C         17.25014         4.02368        -0.96210
C         18.59214         6.02955        -0.30136
C         17.31876         5.48875        -0.78271
C         18.56102         7.25121         0.28787
C         17.43907         8.14333         0.44754
C         18.93356        10.23290         0.56015
C         17.78996         9.44705         0.92263
C         18.95879        11.62789         0.85323
C         17.08518        12.76600         1.20437
C         18.52788        14.76400         0.72242
C         17.23495        14.12975         0.86611
C         18.52986        16.18847         0.59180
C         17.32089        16.92638         0.57337
C         18.61143        19.02737         1.11650
C         17.39051        18.40977         0.45647
C         18.59022        20.53319         1.09255
C         17.32159        21.21236         1.12539
C         18.55458        23.48489         1.15149
C         17.30609        22.62179         1.52067
C         18.43597        24.89675         0.68332
C         17.18992        25.66709         0.68213
C         18.35459        27.49069        -0.73244
C         17.08148        26.85112        -0.22589
C         18.33549        28.91939        -1.11342
C         17.13429        29.57938        -1.26013
C         19.72291         3.93768        -1.04864
C         20.85215         6.18972        -1.32365
C         19.92269         5.31744        -0.46695
C         21.02222         7.54119        -1.23196
C         20.33938         8.38861        -0.28124
C         20.79626        10.71662        -1.02981
C         20.01214         9.74837        -0.31231
C         20.70811        12.05823        -0.76591
C         19.78294        12.57788         0.20980
C         20.95488        14.74049         0.26933
C         19.72386        14.00815         0.45542
C         21.02494        16.09691         0.26318
C         19.80508        16.90944         0.32064
C         21.10991        19.19299         0.73557
C         19.86761        18.41480         0.52272
C         21.04243        20.53035         0.92361
C         19.77430        21.26174         0.97718
C         20.84125        23.35616         0.20330
C         19.74403        22.68948         0.76394
C         20.78366        24.71568        -0.06765
C         19.59528        25.47350         0.10913
C         20.78200        27.60992        -0.42326
C         19.62671        26.86899        -0.33119
C         20.76719        28.95120        -0.92509
C         19.60088        29.57975        -1.27419
O          4.29029        14.40364         2.09557
O          5.46453        27.83533         0.88227
O          8.49014        15.68372        -1.30486
O         16.83463        10.01941         1.79026
O          3.08243        12.58887        -0.71021
O          1.71855         8.25332        -1.60716
O         19.70048        17.87837        -0.81235
O         13.12540        12.61830        -1.35507
O          9.55879        27.16962        -1.70222
O         13.17861        10.11273        -1.45397
O         16.65214         6.28128        -1.81684
O         12.80892        28.12108         1.76935
O         18.20030        23.10391         2.54215
O         10.58677        29.09072         1.09586
O         18.13288        12.11329         1.87576
O         16.95153        18.90853        -0.84676
O          6.25561        11.10314         2.17116
O          9.42792         6.10953        -2.14245
O          8.86878        11.21405         1.71803
O          5.48319         8.58794        -1.54072
O         10.71479        11.33167        -1.29039
O          7.20900         4.73549        -2.16845
O          4.24249        21.20345         1.98563
O         17.53450        26.61361        -1.59341
O          4.04318         9.93022         1.70329
O         12.57080        25.31549         2.26073
O         16.02640        24.40417         2.39379
O         19.78014         7.72111         0.83230
O          1.33997        27.75542         0.17731
O         14.24714        18.91633         1.82266
O          2.32719        16.74275        -0.96503
H          1.50764        17.11366        -1.35359
O         20.55661         5.12547         0.82236
H         20.60239         6.01492         1.24536
O         14.66344        26.61730         2.78857
H         13.76693        27.02058         2.89786
O          3.53172        16.75410         2.46081
H          4.04802        16.05491         2.92804
O          2.37405         5.67357         1.61470
H          1.65402         5.08384         1.92539
O         15.14283        21.64079        -1.14974
H         14.74738        22.51093        -1.40623
O         13.91735        24.05293        -0.86415
H         13.07524        23.96240        -1.36139
O         11.21614        20.83945        -1.50744
H         10.43696        20.36707        -1.87231
O         13.32149        14.88079         2.18535
H         13.91977        15.54865         2.58609
O         18.58411        18.60587         2.51473
H         17.98902        19.20594         3.01191
H          1.18449         2.34037        -0.32934
H         -0.96524         3.56359        -0.45162
H         -1.01703         6.04100        -0.61835
H         -1.10712         8.05089         0.09584
H         -1.03803        10.46610         0.27106
H         -0.99219        12.21294         1.32090
H         -1.02245        14.63891         1.62916
H         -0.94755        16.74917         1.66773
H         -0.96293        19.15695         1.16617
H         -1.02457        20.87227         0.08415
H         -0.99269        23.25817        -0.45561
H         -0.79473        24.85835        -1.52698
H         -0.77118        27.16302        -2.31389
H          0.45292        29.43144        -2.51852
H          3.61512         2.39280        -0.39901
H          2.56083        30.67617        -2.31910
H          6.03662         2.36522        -0.26723
H          4.88326        30.81368        -1.81557
H          8.63533         2.31734        -0.43136
H          7.33954        30.90682        -1.65934
H         11.12119         2.28824        -0.59900
H          9.80079        30.99985        -1.31420
H         13.59042         2.31492        -0.81996
H         12.32395        30.87054        -1.26631
H         15.98333         2.30102        -1.06818
H         14.75337        30.75791        -1.38378
H         18.46909         2.29548        -1.52925
H         17.13389        30.62683        -1.59753
H         20.63439         3.35688        -1.25778
H         21.41998         5.66714        -2.11080
H         21.66467         8.03630        -1.97830
H         21.53758        10.35282        -1.75569
H         21.34256        12.75672        -1.32829
H         21.88632        14.16399         0.17438
H         21.99310        16.60119         0.13688
H         22.08628        18.69286         0.65727
H         21.97539        21.10009         1.04080
H         21.75164        22.79956        -0.05546
H         21.65805        25.19864        -0.52275
H         21.74612        27.18619        -0.11009
H         21.72348        29.48532        -1.01283
H         19.61260        30.61846        -1.63434
