         261
 CSIRO Nanostructure Databank - Neutral Graphene Oxide Data Set
C        -11.37567         0.59358        -0.24733
C        -10.10256         1.33058         0.01422
C         -8.86155         0.45790         0.18366
C         -7.52265         1.12160         0.32958
C         -6.28845         0.41043        -0.15742
C         -5.01752         0.96722         0.49071
C         -3.81271         0.06751         0.28117
C         -2.49176         0.70737         0.61437
C         -1.20945         0.03148         0.23124
C          0.10334         0.80499         0.34029
C          1.13793         0.49801        -0.70993
C          2.36909         1.39691        -0.88154
C          3.58245         0.88543        -1.64564
C          4.89795         1.66707        -1.55402
C          6.20738         0.99046        -1.97809
C          7.47381         1.88518        -1.92661
C          8.79608         1.12289        -2.16026
C         10.06870         1.91124        -1.92802
C         11.19215         1.24312        -1.22516
C         -9.88702         2.74958        -0.21033
C         -8.71501         3.46391         0.43819
C         -7.42697         2.62198         0.39115
C         -6.11956         3.23190        -0.07390
C         -4.86550         2.39953        -0.00058
C         -3.51848         3.03427         0.22625
C         -2.47619         2.18532         0.94171
C         -1.17711         2.81908         1.36677
C          0.15712         2.11021         1.11039
C          1.51605         2.90016         1.13482
C          2.39797         2.71024        -0.10123
C          3.67124         3.50539        -0.07274
C          4.93126         2.92971        -0.70583
C          6.26728         3.36119        -0.12147
C          7.49014         2.55570        -0.55602
C          9.12570         4.20871        -1.46550
C         10.12657         3.40375        -1.75098
C         -8.46730         4.92294         0.09054
C         -7.25764         5.53145         0.00331
C         -6.01589         4.73183        -0.20691
C         -4.64233         5.36568        -0.21355
C         -3.40894         4.52863         0.10398
C         -2.30057         5.18160         0.88611
C         -1.20034         4.34032         1.45957
C          0.07235         5.00597         1.90801
C          1.38472         4.35533         1.62991
C          2.68884         5.14656         1.74564
C          3.82057         4.73853         0.80536
C          5.14576         5.44375         0.89009
C          6.40848         4.73630         0.47486
C          7.73242         5.53858         0.17417
C          8.18968         5.10549        -1.22443
C         -7.18884         7.06856         0.06445
C         -5.79945         7.70671         0.00445
C         -4.55566         6.87025        -0.07659
C         -3.29778         7.51978         0.41611
C         -2.12832         6.67915         0.80176
C         -0.76224         7.31286         0.55749
C         -0.05764         6.48769         2.25768
C          1.76260         7.66956         2.67513
C          2.78949         6.53327         2.35885
C          4.14921         7.13344         2.35712
C          5.25568         6.49716         1.93031
C          6.90999         7.77542         1.06949
C          7.51799         7.04873         0.10347
C         -5.59330         9.07876         0.56778
C         -4.38994         9.68246         0.57799
C         -3.12295         9.00089         0.07619
C         -1.83098         9.53981         0.67159
C         -0.70655         8.78848         0.84956
C          0.60829         9.38145         1.08342
C          1.72797         8.84412         1.67312
C          2.96977         9.57459         1.41644
C          4.21159         9.30930         1.92882
C          5.43540         9.85455         1.32657
C          6.56938         9.20112         0.94943
C        -11.41386        -0.74026        -0.43929
C        -10.20290        -1.47036        -0.99651
C         -8.88515        -0.94256        -0.37893
C         -7.65071        -1.61458        -0.90198
C         -6.33424        -0.88937        -0.89910
C         -5.03910        -1.65793        -1.24663
C         -3.87219        -1.29219        -0.33696
C         -2.59254        -2.01809        -0.65888
C         -1.27626        -1.31074        -0.47917
C         -0.13256        -1.74752        -1.33633
C          1.07817        -0.83308        -1.40990
C          2.33260        -1.43768        -1.98503
C          3.62020        -0.58827        -2.05134
C          4.95148        -1.29482        -2.19733
C          6.27000        -0.49623        -2.19604
C          7.60887        -1.28660        -2.25441
C          8.84986        -0.38663        -1.96661
C          9.99635        -0.90737        -1.12880
C         11.08301         0.00580        -0.71154
C        -10.11349        -2.98490        -0.84844
C         -8.94987        -3.66794        -1.11256
C         -7.85092        -2.85541        -1.82126
C         -6.44490        -3.43031        -2.15969
C         -5.25641        -3.18520        -1.25543
C         -4.04118        -4.06187        -1.22745
C         -2.73355        -3.31240        -1.42928
C         -1.46200        -3.99455        -1.82942
C         -0.16626        -3.15378        -1.86962
C          1.17508        -3.84540        -1.91836
C          2.40660        -2.95604        -2.06036
C          3.75523        -3.62506        -1.85717
C          5.01442        -2.78542        -1.92288
C          6.25921        -3.26721        -1.19733
C          7.56784        -2.55630        -1.37432
C          8.67464        -2.88222        -0.42715
C          9.80089        -2.14715        -0.35391
C         -8.71528        -4.97526        -0.51580
C         -7.65504        -5.83721        -0.69001
C         -6.75094        -5.86238        -1.88441
C         -5.30200        -6.34513        -1.69168
C         -4.00899        -5.54039        -1.57908
C         -2.64558        -6.20558        -1.25344
C         -1.33270        -5.52458        -1.75622
C         -0.11829        -5.75113        -0.82357
C          1.21352        -5.24218        -1.36707
C          2.50398        -5.72691        -0.75561
C          3.76938        -4.87386        -0.97381
C          4.89556        -5.02903         0.00608
C          6.00260        -3.96063         0.15671
C          7.25244        -4.60535         0.75799
C          8.62816        -4.23191         0.25730
C         -7.45850        -6.96852         0.19280
C         -6.41134        -7.84864         0.06847
C         -5.46248        -7.77373        -1.11206
C         -3.72303        -7.43748         0.72567
C         -2.54370        -7.27350        -0.20680
C         -1.22069        -7.73771         0.37694
C         -0.15593        -6.66615         0.35164
C          1.09045        -7.41903         0.73933
C          2.40581        -6.69927         0.40264
C          3.36013        -6.48363         1.54608
C          4.63148        -5.71011         1.32211
C          5.79774        -5.90957         2.26078
C          7.13002        -5.50689         1.75379
C         -6.26474        -8.92734         1.04992
C         -5.10534        -9.35752         1.62506
C         -3.81160        -8.74278         1.42270
C         -2.62386        -9.18507         1.95684
C         -1.37097        -8.51415         1.67440
C         -0.23982        -8.73761         2.41680
C          1.01780        -8.09802         2.09882
C          2.10622        -8.25125         2.90764
C          3.26240        -7.33996         2.78343
C          4.49826        -7.58080         3.55768
C          5.66522        -6.95541         3.29783
O          6.17547         0.44217        -3.31565
O          2.20029        -2.14971        -3.24163
O         -1.76776        -0.08236         1.57053
O          2.56745         3.81706        -0.99677
O         -4.86409        -3.82273        -0.02800
O         -6.32700         0.36964        -1.62762
O          4.61904        -3.65846        -3.01772
O         -2.32647         4.77079         2.29283
O         -5.51945         2.61841        -1.26223
O         -2.13765         2.33316         2.34771
O         -2.70620        -7.61435        -1.59996
O         -5.31052         5.04606        -1.45185
O          9.62922         1.53543        -3.27501
O          7.23063        -3.80574        -2.11824
O          6.43316         3.54687         1.32289
O          2.56086         1.64628        -2.30419
O          0.53188         0.37885        -2.02987
O         -0.37758        -5.26825         0.56070
O          8.31401         2.23026         0.28775
O          4.91331        -5.76585        -1.21521
O          2.96018         5.31020         3.16884
O          0.72594         4.25187         2.95571
O          4.86757        -4.77969         2.40911
O          5.50024        -2.95884         0.98971
O         -2.37769        -3.45474        -2.82868
O         -1.72300        -2.31825         0.47642
O          0.45714         0.83829         1.74519
O         -4.97326        -8.76749        -1.59710
O         -8.32583        -2.47501        -3.11770
O         -2.97066         7.30074         1.82202
O         -8.13426        -1.87717         0.45292
O          4.20053        -0.86907        -3.35010
O         -7.33573         1.80846         1.59239
O          4.32289         8.38468         2.98492
O          4.18264         5.84494        -0.12502
O          4.85484         2.99555        -2.14870
O         -7.23942        -5.85779        -3.00111
O         -0.53380        -8.68608        -0.53245
O          0.92572        -8.56754        -0.20552
O         -0.02429         6.77808        -0.30257
O          1.24431        -5.00505        -2.79219
O         -4.10496        -1.15514         1.07347
O         -0.41617        -2.03661        -2.74558
O          2.87759        -7.13056        -0.88985
O         -5.10038         7.53212        -1.25595
O          1.44803         7.88888         3.83971
O         -9.64154         0.74835         1.35852
O         -4.48654        -6.04451        -2.85223
O          6.49270         7.09399         2.22838
O         -4.44906        -6.48664         0.98567
O          2.70870        -5.95897         2.73830
O          9.98736        -1.02414        -2.59536
O         -2.94945         3.66301        -0.96977
O         -4.64550        -1.29898        -2.57482
H         -5.02742        -0.41612        -2.79164
O         -1.02762        -6.06637        -3.02921
H         -1.76001        -5.86220        -3.64719
O         -0.81757         6.64220         3.27868
H         -1.19310         5.80075         3.63181
O          8.68927         5.21556         1.16952
H          8.66000         4.24332         1.31399
O         -6.17641        -3.60164        -3.33545
H         -7.75661        -2.95105        -3.78037
O          7.74287        -1.70674        -3.61230
H          7.36864        -2.61180        -3.70022
O         -9.15984         3.53472         1.82835
H         -9.00369         2.63619         2.21633
O          7.31399         2.87984        -2.93376
H          7.17273         2.41144        -3.78592
O          2.33377         2.28389         2.15358
H          1.89629         2.42815         3.02286
O         -7.76994         7.50025         1.29655
H         -8.63065         7.05233         1.42646
O         -3.03043         9.20799        -1.34681
H         -2.20317         8.79875        -1.67559
O          9.07955        -5.23293        -0.66990
H          8.54134        -5.13673        -1.48967
O        -10.28263        -1.01886        -2.36606
H         -9.80234        -1.64412        -2.96154
O         -5.11580         1.05103         1.91872
H         -4.94096         0.16166         2.29959
H         11.87449        -0.40558        -0.06727
H         12.04709         1.87561        -0.94073
H         11.13296         3.84429        -1.87873
H          7.62808         5.52999        -2.07637
H          7.85144         7.55811        -0.81251
H          7.28932         9.79083         0.35740
H          5.34716        10.89976         0.98336
H          2.90911        10.33860         0.62474
H          0.74603        10.36698         0.60328
H         -1.76720        10.63205         0.80573
H         -4.30049        10.70723         0.96980
H         -6.47740         9.60389         0.95798
H         -7.79772         7.47665        -0.79611
H         -9.36181         5.56217         0.18827
H        -10.71002         3.34195        -0.63892
H        -12.30650         1.14405        -0.03940
H        -12.38796        -1.24906        -0.49670
H        -10.92692        -3.50656        -0.31868
H         -9.42172        -5.23291         0.29288
H         -8.16402        -7.08939         1.03050
H         -7.20278        -9.39771         1.38900
H         -5.15014       -10.20568         2.32568
H         -2.60793       -10.05154         2.63697
H         -0.29447        -9.34984         3.32953
H          2.03286        -8.88330         3.80617
H          4.46125        -8.36835         4.32518
H          6.56883        -7.23056         3.86190
H          8.02185        -5.96188         2.21133
H          9.34881        -4.23598         1.11426
H         10.61417        -2.46713         0.31596
