         261
 CSIRO Nanostructure Databank - Neutral Graphene Oxide Data Set
C        -10.84039         0.59023        -1.22463
C         -9.60648         1.31894        -1.58727
C         -8.30637         0.55930        -1.49475
C         -7.07332         1.33181        -1.11760
C         -5.85773         0.58852        -0.66757
C         -4.70263         1.36049        -0.06732
C         -3.44520         0.66111         0.35570
C         -2.26796         1.41505         0.94038
C         -1.08244         0.72807         1.53083
C          0.09494         1.48510         2.13816
C          1.40980         0.72794         2.06073
C          2.55270         1.45283         1.37568
C          3.87225         0.70830         1.26894
C          5.20343         1.53371         1.17386
C          6.22527         0.81898         0.24662
C          7.21822         1.64085        -0.52094
C          7.85932         1.18261        -1.84100
C          9.28074         1.65290        -1.98753
C         10.33678         0.75558        -2.45039
C         -9.56190         2.81271        -1.61476
C         -8.42392         3.48525        -1.29675
C         -7.39065         2.71063        -0.47745
C         -6.14762         3.54929        -0.15948
C         -4.91416         2.79772         0.31507
C         -3.68829         3.55965         0.69970
C         -2.41634         2.88278         1.15113
C         -1.19427         3.66248         1.51211
C          0.09330         2.97297         1.94099
C          1.37324         3.74035         1.71522
C          2.49724         2.93392         1.10569
C          3.74282         3.67607         0.66177
C          5.08185         3.00272         0.70283
C          6.36493         3.84001         0.52693
C          7.37123         3.12978        -0.32871
C          8.10404         3.77693        -1.51089
C          9.39225         3.00287        -1.80035
C         -8.21893         4.88048        -1.67791
C         -7.08698         5.59884        -1.42928
C         -6.03783         4.99112        -0.56720
C         -4.67584         5.62298        -0.53264
C         -3.54230         4.94115         0.14721
C         -2.32981         5.76963         0.52085
C         -1.13642         5.10270         1.09782
C         -0.03859         5.92921         1.68575
C          1.31113         5.23771         1.56927
C          2.39000         5.93600         0.79117
C          3.64008         5.17097         0.45488
C          4.91731         5.97518         0.67266
C          6.30305         5.35121         0.37805
C          7.22964         5.93438        -0.68075
C          8.21685         5.26626        -1.31571
C         -6.93709         7.02728        -1.95464
C         -5.65119         7.77800        -1.55777
C         -4.57243         7.10890        -0.76372
C         -3.66021         7.94197         0.12708
C         -2.67906         7.15461         1.00083
C         -1.33803         8.49002         1.58164
C         -0.20061         7.41400         1.80307
C          1.52399         8.35660         1.74802
C          2.40760         7.45549         0.84853
C          3.65200         8.19013         0.45858
C          4.87008         7.38934         0.10996
C          6.17815         8.08437        -0.03573
C          7.38630         7.17446         0.16166
C         -5.63305         9.26796        -1.60540
C         -4.55798         9.96730        -1.19086
C         -3.51978         9.39822        -0.28087
C         -2.19719        10.03114        -0.20345
C         -1.11485         9.53687         0.51485
C          0.14251        10.19232         0.46718
C          1.35373         9.70034         1.01869
C          2.55762        10.34959         0.78914
C          3.85686         9.60986         1.03337
C          5.09446        10.26342         0.44528
C          6.18130         9.56942         0.06565
C        -10.85676        -0.73494        -0.96974
C         -9.66328        -1.59428        -1.12640
C         -8.30934        -0.95029        -1.32532
C         -7.00810        -1.77096        -1.04675
C         -5.76778        -0.92521        -0.66080
C         -4.60784        -1.62129         0.01968
C         -3.57557        -0.78818         0.74601
C         -2.49292        -1.44436         1.55630
C         -1.21333        -0.72621         1.86978
C          0.04724        -1.48678         2.08097
C          1.36965        -0.76503         1.90528
C          2.30043        -1.35440         0.84069
C          3.72485        -0.75522         0.89239
C          4.70317        -1.35050        -0.09088
C          5.93073        -0.52864        -0.40214
C          7.05439        -1.22355        -1.11199
C          8.50384        -1.00977        -0.80863
C          9.43243        -1.53026        -1.85013
C         10.36257        -0.61660        -2.48312
C         -9.67753        -3.01466        -0.75687
C         -8.51140        -3.72897        -0.52717
C         -7.21964        -3.02280        -0.14275
C         -5.94046        -3.86264        -0.05021
C         -4.70404        -3.10945         0.35859
C         -3.79805        -3.68924         1.43026
C         -2.54974        -2.94436         1.85579
C         -1.26454        -3.73361         2.19812
C          0.07289        -2.99537         2.12633
C          1.32872        -3.70118         1.67377
C          2.30295        -2.91830         0.80463
C          3.43072        -3.63180         0.10246
C          4.58204        -2.82784        -0.59004
C          5.93845        -3.61262        -0.66427
C          7.32284        -3.11165        -0.21152
C          8.44499        -3.69091        -1.09663
C          9.40747        -2.90424        -1.87634
C         -8.53747        -5.13023        -0.46244
C         -7.41306        -5.86352        -0.00028
C         -6.35970        -5.06682         0.77419
C         -5.15250        -5.92377         1.19418
C         -3.85127        -5.21256         1.69298
C         -2.50042        -5.82799         1.29351
C         -1.27557        -5.24354         1.97636
C          0.03260        -6.01129         1.78400
C          1.32488        -5.22640         1.57850
C          2.56206        -5.91535         1.02509
C          3.54017        -5.14362         0.16455
C          4.73361        -5.86795        -0.38366
C          5.97699        -5.10967        -0.72026
C          7.32603        -5.82804        -0.46315
C          8.41935        -5.05017        -1.16614
C         -7.34129        -7.19310        -0.33729
C         -6.32512        -8.13307         0.22846
C         -5.08000        -7.36346         0.72340
C         -3.74307        -7.79860         0.17811
C         -2.45430        -7.17672         0.67247
C         -1.35077        -8.17952         1.01098
C         -0.00738        -7.50062         1.41017
C          1.27948        -8.20202         1.05642
C          2.56923        -7.41977         0.90253
C          3.63672        -8.04924         0.03228
C          4.97138        -7.30288         0.10995
C          6.09424        -7.98590        -0.66675
C          7.20675        -7.26102        -0.94073
C         -6.06623        -9.35761        -0.61609
C         -4.85155        -9.83937        -0.90521
C         -3.63276        -9.03770        -0.64827
C         -2.29631        -9.65169        -0.79932
C         -1.20520        -9.21739        -0.11517
C          0.05669        -9.91962        -0.25639
C          1.21466        -9.48838         0.29281
C          2.46431       -10.33273         0.22960
C          3.62101        -9.50068        -0.29630
C          4.89843       -10.14563        -0.67510
C          6.01309        -9.41967        -0.91168
O         -3.70698        -3.07440         2.73494
O         -1.20685         5.45892        -0.33549
O          4.76257        -0.45838        -1.25826
O          1.78325         4.61618         2.80136
O          1.83404        -0.15153         3.13022
O         -5.30007        -7.05038         2.11290
O         -9.01058        -1.52868        -2.45734
O          0.95393        -5.78445         2.86313
O         -6.50034         4.62521         0.76489
O          2.54616         8.04791        -0.47500
O          2.15385        -3.34842        -0.57708
O         -6.00390         1.15279        -2.05054
O          3.14959        -6.77878         2.05404
O          5.99256        -4.32797        -1.93967
O         -1.10607         1.03792         0.10711
O         -4.41132         7.31589        -2.20108
O         -3.57994         1.11804        -1.00396
O          7.47092        -2.75398         0.96246
O         -1.42682        -4.66368         3.29663
O          2.67303         5.48629        -0.56972
O         -7.35286        -2.88302         1.32903
O         -0.32625         6.65464         2.92416
O          4.13427        -0.38273         2.21917
O          2.07058         1.97937         0.09712
O          8.94162        -0.71618         0.29471
O         -0.05827         2.36234         3.26302
O         -4.58892        -1.37465        -1.40282
O          5.40690         7.60023        -1.21470
O          7.15686         6.23858         1.31754
O         -1.85459         8.92825         2.64441
O         -4.79238        -3.91656        -0.88157
O         -4.68239         3.19253         1.70110
O          7.64881         3.43153         1.05718
O         -0.72131        -0.98224         3.21315
O         -2.15014        -5.98004        -0.12201
O         -7.04844        -4.31165         1.86228
O         -8.86844         0.88693        -2.79787
O          0.72911        -8.28779         2.39495
O         -3.68191         4.89411        -1.31481
O          7.22214         0.71940        -2.76929
O          3.18976        -8.46382        -1.27273
O          4.33034         3.06906        -0.53869
O          7.56987         0.96046         0.71325
O         -3.76712        -7.70426        -1.28874
O          3.58434        -5.65052        -1.23118
O         -7.98134         2.30515         0.72910
O          5.38368        -7.22933         1.44893
O          1.79402         8.38627         2.98816
O          1.15246        -3.32241         3.05622
O         -3.64599        -0.78976         2.19418
O         -4.24469         8.96839         0.95487
O         -1.82361        -8.95456         2.07006
O         -2.20229         3.36846         2.51665
O          4.84105         6.11224         2.11837
H          5.73828         6.36195         2.45060
O          4.15950        -2.68192        -1.95516
H          4.06981        -3.59034        -2.32917
O          7.58216        -5.82663         0.95020
H          6.88001        -6.39942         1.38458
O          2.78228       -10.82579         1.53763
H          2.47419       -10.18394         2.21180
O         -8.06354         7.80367        -1.52813
H         -8.24269         7.61423        -0.58408
O         -7.03961        -8.65909         1.38603
H         -6.76733        -8.10685         2.16203
O          4.14811         9.50462         2.44526
H          3.34238         9.17943         2.92761
O          6.76153        -1.60755        -2.34983
H          5.78549        -1.47901        -2.51241
O         -3.23155         6.94422         2.24497
H         -3.37810         7.82721         2.67595
O          5.73100         1.60907         2.48988
H          5.74549         0.71002         2.88553
O         -6.69407        -2.41751        -2.28885
H         -6.41017        -1.73940        -2.93749
O          1.69226        -0.90839        -0.37867
H          2.02737        -1.46325        -1.12237
O          7.19703         3.53264        -2.61923
H          7.57472         3.92435        -3.43378
O         -3.95019        -5.42000         3.10588
H         -3.24259        -4.90996         3.56869
H         11.22305        -1.08199        -2.99097
H         11.21252         1.26708        -2.88299
H         10.35323         3.52938        -1.91425
H          9.06975         5.81266        -1.74709
H          8.37321         7.68296         0.22132
H          7.08811        10.10159        -0.26280
H          5.13840        11.36325         0.46579
H          2.56704        11.31532         0.25761
H          0.19972        11.13604        -0.10143
H         -2.01889        10.86488        -0.90198
H         -4.51095        11.05292        -1.36628
H         -6.44712         9.76883        -2.14884
H         -6.97447         7.00370        -3.07602
H         -9.01998         5.34774        -2.27338
H        -10.38831         3.32335        -2.13558
H        -11.75476         1.18214        -1.07097
H        -11.78522        -1.21961        -0.63329
H        -10.63125        -3.56214        -0.82422
H         -9.41494        -5.67405        -0.84320
H         -8.18204        -7.62917        -0.90035
H         -6.96355        -9.94454        -0.86304
H         -4.74072       -10.79674        -1.43584
H         -2.19142       -10.48020        -1.51817
H          0.04798       -10.86235        -0.82708
H          2.29694       -11.21725        -0.43812
H          4.90431       -11.23746        -0.80564
H          6.93168        -9.92153        -1.25225
H          8.06799        -7.73103        -1.44127
H          9.16960        -5.59483        -1.76213
H         10.10895        -3.46765        -2.51361
