         470
 CSIRO Nanostructure Databank - Neutral Graphene Oxide Data Set
C         37.47152        50.07893        -1.66478
C         36.28135        50.78156        -1.79094
C         37.47845        52.86251        -1.52617
C         36.28435        52.18192        -1.71721
C         39.98609        48.60999        -1.27632
C         39.94525        50.00776        -1.28833
C         38.70032        50.74791        -1.46251
C         39.96445        52.88587        -1.24252
C         38.70477        52.17011        -1.39895
C         40.02720        54.28347        -1.15054
C         42.39696        48.51749        -0.88452
C         41.19469        47.88653        -1.12277
C         42.39341        49.98538        -0.74988
C         41.16919        50.73971        -1.12134
C         42.46680        52.88097        -1.22504
C         41.18349        52.13593        -1.16427
C         42.47255        54.34396        -1.05846
C         41.24133        54.98650        -1.01336
C         44.80007        45.71453        -0.01311
C         43.68558        46.35005        -0.41413
C         44.98711        48.54584        -0.58954
C         43.68616        47.78172        -0.80631
C         44.98843        50.01006        -0.54443
C         43.70590        50.71958        -0.60382
C         44.99848        52.90158        -0.66474
C         43.76845        52.15473        -1.00876
C         44.97278        54.32344        -0.71677
C         43.74278        55.03767        -0.95011
C         45.00520        57.12947        -0.95373
C         43.79776        56.43539        -1.06557
C         47.45187        44.19242         0.12011
C         47.36934        45.64263         0.43130
C         46.07850        46.41370         0.24531
C         47.37282        48.55687         0.06645
C         46.17165        47.84947        -0.06827
C         47.37842        49.98051        -0.12633
C         46.18519        50.71896        -0.37893
C         47.39229        52.93627        -0.21395
C         46.19020        52.19266        -0.41053
C         47.40768        54.34057        -0.25181
C         46.19118        55.05273        -0.52656
C         47.49803        57.23662        -0.65233
C         46.19704        56.46707        -0.66029
C         47.39317        58.61104        -0.03929
C         49.78352        44.21662         0.95671
C         48.60679        43.53582         0.29331
C         49.84609        45.69878         0.57826
C         48.65372        46.39210         0.38039
C         49.84296        48.51393         0.39448
C         48.62946        47.82438         0.28171
C         49.78601        49.97609         0.60531
C         48.64795        50.71350        -0.01182
C         49.82868        52.97610         0.48061
C         48.67207        52.21806        -0.04982
C         49.84525        54.36081         0.39796
C         48.64298        55.08156        -0.00368
C         49.85794        57.22177         0.25360
C         48.66771        56.46640        -0.08026
C         49.79798        58.61242         0.36622
C         48.51506        59.26674         0.34824
C         52.34941        41.39622         1.30180
C         51.16688        42.04577         1.10772
C         52.26359        44.28335         1.27088
C         51.11330        43.48604         0.66726
C         52.29449        45.71050         0.92510
C         51.10333        46.39785         0.61038
C         52.29250        48.60438         0.67285
C         51.09244        47.84469         0.53542
C         52.30921        50.02167         0.82554
C         51.02173        50.73483         0.95289
C         52.32017        52.97241         1.04644
C         51.00659        52.23785         0.96606
C         52.31558        54.42185         0.76553
C         51.08319        55.10603         0.59291
C         52.32379        57.25407         0.64081
C         51.09498        56.52062         0.51546
C         52.31896        58.67015         0.57553
C         51.02031        59.42328         0.72330
C         52.25017        61.38921        -0.18905
C         51.06740        60.76292         0.03204
C         54.96340        39.92590         1.34234
C         54.88937        41.38777         1.25654
C         53.62993        42.05539         1.26170
C         54.86701        44.25770         1.28361
C         53.63983        43.50738         1.43298
C         54.78808        45.74767         1.55684
C         53.58776        46.38186         0.84212
C         54.80458        48.67936         0.85426
C         53.57588        47.90108         0.66778
C         54.75660        50.03756         0.62267
C         53.51110        50.75485         0.71643
C         54.75575        52.90208         0.73189
C         53.57063        52.20225         0.82511
C         54.78502        54.35855         0.98512
C         53.53436        55.12274         0.80780
C         54.82566        57.23275         0.67478
C         53.57044        56.53593         0.72551
C         54.83859        58.73818         0.81042
C         53.53208        59.41104         0.46778
C         54.75917        61.55692        -0.17590
C         53.50891        60.76190         0.12643
C         54.84310        62.89557         0.52481
C         57.44131        39.94012         1.11081
C         56.12414        39.24201         1.32864
C         57.37252        41.39487         1.59092
C         56.09019        42.12275         1.22457
C         57.31605        44.28629         0.94209
C         56.10467        43.57218         1.11908
C         57.26327        45.75144         0.58751
C         56.09256        46.48923         1.23672
C         57.30728        48.60692         0.40183
C         56.08949        47.96181         0.95445
C         57.22043        49.99157        -0.07142
C         55.94864        50.75286         0.12807
C         57.30010        52.95599         0.21774
C         55.98543        52.25490         0.22596
C         57.31913        54.35367         0.42335
C         56.09456        55.09016         0.81882
C         57.28354        57.24148         0.38160
C         56.04019        56.54989         0.60708
C         57.24930        58.65703         0.15598
C         56.06009        59.39197         0.19138
C         57.24953        61.54302        -0.11054
C         56.05667        60.80158        -0.01196
C         57.27495        62.96199         0.15204
C         56.01655        63.56136         0.59048
C         59.90006        37.59193         2.92835
C         58.66861        38.10500         2.46847
C         59.90795        39.94760         1.48865
C         58.66352        39.29060         1.75762
C         59.83730        41.23044         0.87799
C         58.66640        42.11947         1.18247
C         59.81568        44.39343         0.48538
C         58.62353        43.60275         0.91526
C         59.84986        45.81585         0.85155
C         58.53713        46.53672         0.88520
C         59.77288        48.67460         0.27179
C         58.52177        47.97050         0.49817
C         59.76541        50.04336         0.03054
C         58.51314        50.77615        -0.20772
C         59.73853        52.96365        -0.11047
C         58.50272        52.25538        -0.04144
C         59.71693        54.37408        -0.02412
C         58.51995        55.08015         0.25507
C         59.74907        57.25207         0.19777
C         58.50665        56.53310         0.27510
C         59.76753        58.64518         0.05292
C         58.49567        59.31942        -0.25065
C         59.80776        61.53951        -0.35346
C         58.49375        60.82409        -0.39895
C         59.77104        63.04204        -0.19058
C         58.47585        63.69707         0.11059
C         59.73291        65.79683         0.37026
C         58.54804        65.10307         0.38657
C         63.33198        35.61232         2.41650
C         63.13700        37.02975         2.21322
C         61.10510        38.16295         2.53755
C         62.41326        39.94495         1.23152
C         61.18418        39.32674         1.70835
C         62.30724        41.20113         0.58420
C         61.01273        41.67871         0.29377
C         62.29500        44.42767         0.19705
C         60.97475        43.86960        -0.00841
C         62.33125        45.83268         0.41927
C         61.08294        46.57000         0.54046
C         62.29621        48.69126         0.35559
C         61.02804        47.93909         0.37415
C         62.30958        50.06075        -0.21601
C         60.99766        50.78666        -0.29959
C         62.23819        52.91009        -0.27207
C         61.01030        52.25980        -0.25508
C         62.27165        54.38083        -0.36874
C         60.95630        55.12952        -0.25514
C         62.22022        57.18415         0.32855
C         61.00591        56.53992         0.14441
C         62.18355        58.63366         0.65401
C         60.97725        59.39744         0.21770
C         62.20537        61.56802         0.42163
C         61.00705        60.77741         0.06389
C         62.32262        62.99370        -0.12056
C         61.03174        63.77482         0.06089
C         62.27568        65.92825         0.01745
C         61.00818        65.14660         0.18722
C         62.34364        67.40261         0.20010
C         65.02440        35.56378         0.64919
C         64.22719        34.89971         1.68960
C         64.87196        37.05553         0.50354
C         63.87027        37.79235         1.33537
C         64.80070        39.94792         0.64557
C         63.71848        39.25572         1.14615
C         64.79856        41.39335         0.28101
C         63.46744        42.09240         0.16564
C         64.71504        44.31699         0.34180
C         63.47551        43.62614         0.25335
C         64.76385        45.73844         0.25942
C         63.57297        46.48984         0.36631
C         64.83262        48.64147        -0.05617
C         63.61264        47.95827         0.41654
C         64.80582        50.08983        -0.21285
C         63.56752        50.81763        -0.15093
C         64.74300        52.96659        -0.26412
C         63.51802        52.21721        -0.23606
C         64.74811        54.37939        -0.11743
C         63.50549        55.10467        -0.01920
C         64.75055        57.12886         0.62896
C         63.46800        56.46019         0.29912
C         64.78530        58.62607         0.87675
C         63.47474        59.36499         0.91995
C         64.77589        61.56129         0.52282
C         63.48739        60.85738         0.77542
C         64.78416        62.92729         0.45355
C         63.49497        63.73309         0.57265
C         64.84091        65.89416         0.35010
C         63.56227        65.16677         0.04596
C         64.82182        67.38763         0.53198
C         63.50287        68.06539         0.37978
C         67.36866        32.95342        -0.70829
C         66.23256        33.58141        -0.21547
C         67.52831        35.61632         0.21133
C         66.29790        34.91073         0.21071
C         67.42843        37.07163         0.45139
C         66.14189        37.78085         0.15484
C         67.31927        40.00215         0.65690
C         66.08631        39.26578         0.35975
C         67.25572        41.45866         0.81986
C         66.03048        42.16177         0.49523
C         67.30282        44.34821         0.39973
C         65.99776        43.63587         0.78779
C         67.24334        45.75863         0.11817
C         66.02439        46.45302         0.09021
C         67.20044        48.55565        -0.69099
C         65.98760        47.88240        -0.18648
C         67.19501        50.08547        -0.83761
C         65.97850        50.81264        -0.46401
C         67.19397        52.95410        -0.58492
C         65.99901        52.25746        -0.42650
C         67.21756        54.45681        -0.66366
C         65.97252        55.10372        -0.11891
C         67.23856        57.16788         0.32716
C         66.00359        56.46074         0.22071
C         67.23816        58.62165         0.40375
C         66.02415        59.35976         0.53269
C         67.21043        61.42819         0.00348
C         66.01160        60.76755         0.37178
C         67.14094        62.88880        -0.38338
C         66.12500        63.64165         0.49550
C         67.10733        65.58795        -0.63974
C         66.04481        65.07658         0.02478
C         67.19403        67.74468        -0.22611
C         66.09288        68.20040         0.50427
C         67.59775        69.87111         1.42821
C         66.33161        69.29309         1.36500
C         69.71204        31.57058        -1.69546
C         69.78197        32.92404        -1.30060
C         68.61691        33.60484        -0.69701
C         70.15473        35.41802         0.02893
C         68.71818        34.93073        -0.19694
C         70.26983        36.89844         0.27049
C         68.46718        37.87087         0.85984
C         69.78874        39.95902         0.46997
C         68.51021        39.30941         0.71002
C         69.85712        41.42699         0.69508
C         68.57681        42.22746         0.86081
C         69.78365        44.29671         0.10307
C         68.52758        43.65747         0.44310
C         69.80773        45.77344        -0.02560
C         68.51216        46.52333        -0.01209
C         69.66849        48.62134        -0.75044
C         68.50353        47.91222        -0.53401
C         69.66862        50.07607        -0.83835
C         68.48179        50.78331        -0.80691
C         69.71311        52.94397        -0.46596
C         68.47281        52.27679        -1.01286
C         69.68606        54.28428        -0.06365
C         68.48352        55.05967        -0.08306
C         69.72975        57.11785         0.56766
C         68.45935        56.41928         0.27999
C         69.74090        58.64143         0.38396
C         68.44936        59.33518         0.18077
C         69.66928        61.42215        -0.49762
C         68.41934        60.71742        -0.09260
C         69.69808        62.90010        -0.43923
C         68.47438        63.60658        -0.40669
C         69.60339        65.81981        -0.52853
C         68.44244        65.01338        -0.57194
C         69.66058        67.26043        -0.36580
C         68.53256        68.09871         0.03927
C         70.05951        69.85936         0.85864
C         68.72711        69.28507         0.79995
C         70.31640        71.08099         1.51962
C         71.92520        31.67484        -2.66742
C         70.76590        30.95476        -2.36631
C         72.02906        33.00318        -2.25987
C         70.97070        33.63029        -1.58669
C         71.34385        36.09143        -2.16374
C         71.21743        35.03966        -1.07521
C         71.27951        37.40604        -1.86406
C         70.78794        37.85444        -0.55847
C         71.95030        40.03777        -0.69477
C         70.81970        39.28775        -0.19050
C         72.07537        41.38025        -0.54793
C         71.08229        42.15846         0.20538
C         72.23243        44.34959        -0.19927
C         70.99341        43.62767        -0.00039
C         72.27277        45.67191        -0.49419
C         71.00651        46.41037        -0.67192
C         72.17802        48.69751        -1.04223
C         70.94888        47.89554        -0.95645
C         72.15614        50.05002        -0.93124
C         70.93311        50.80389        -0.78817
C         72.17527        52.89641        -0.24488
C         70.93474        52.18600        -0.51576
C         72.18780        54.16270         0.21335
C         70.92642        54.89227         0.58086
C         72.15109        57.09196         0.17613
C         70.99778        56.39213         0.37741
C         72.15625        58.51306        -0.04344
C         71.01441        59.26499        -0.01924
C         72.20101        61.52053        -0.30109
C         70.99926        60.69073        -0.45267
C         72.14488        62.88544        -0.38015
C         70.91030        63.59942        -0.47880
C         72.03157        65.81273        -1.03508
C         70.92629        65.10147        -0.29188
C         72.04164        67.16110        -0.99821
C         70.93290        67.88655        -0.38736
C         72.40488        69.82170         0.15545
C         71.12621        69.20384         0.16787
C         72.62455        71.02882         0.79769
C         71.57729        71.65955         1.49128
O         61.58695        54.89233        -1.56360
O         62.62739        58.93448         2.02153
O         51.54859        52.68801         2.26126
O         57.80132        50.24384        -1.38204
O         62.24029        37.59556         3.11853
O         66.97036        66.83250        -1.26225
O         49.04762        51.41193        -1.25310
O         64.13138        41.63945        -1.05105
O         67.01217        49.19327        -1.99968
O         69.36811        46.44023         1.20444
O         55.59044        54.71728         2.16586
O         72.45099        34.98759        -0.40422
O         69.61931        37.31131         1.44000
O         64.84818        66.46669         1.70453
O         62.97774        65.47992        -1.22883
O         62.63293        61.44586         1.82176
O         55.65321        51.57346        -1.04383
O         56.42422        47.40377         2.31399
O         42.88871        50.44710         0.59576
O         44.56040        48.04055        -1.96261
O         69.75067        58.01533         1.71544
O         63.02951        48.58685         1.62061
O         59.02254        43.03604         2.28578
O         50.10156        50.26262         2.01063
O         67.89544        41.93961         2.11567
O         64.28479        36.15473        -0.48468
O         66.11506        38.64826        -1.01345
O         59.91689        62.39898        -1.54824
O         70.91902        41.81006         1.63132
O         70.80173        46.88353        -2.04312
O         58.42263        59.94965        -1.57921
O         43.30475        52.41529        -2.36978
O         61.63814        50.19601        -1.50777
O         46.58027        46.03042         1.60410
O         53.82007        46.95135        -0.47763
O         60.92531        42.65948        -0.69018
O         64.88913        57.68855         1.98676
O         52.73461        43.92438         2.55125
O         70.27172        60.88568        -1.72807
O         59.20372        46.20050         2.12349
O         67.23411        54.80904        -2.09907
H         67.83189        54.15247        -2.54075
O         54.65252        61.86925        -1.60808
H         55.49542        62.28879        -1.88427
O         57.07810        45.86710        -0.85706
H         56.24483        45.41642        -1.10890
O         70.58386        34.73070         1.21437
H         71.57204        34.64651         1.08933
O         65.91285        43.73389         2.25898
H         66.69670        43.24263         2.61775
O         54.99417        58.98234         2.26112
H         55.64929        58.33818         2.60616
O         62.63290        62.87783        -1.52251
H         61.77820        62.76547        -2.00384
O         47.81737        57.45398        -2.07635
H         48.66763        57.94194        -2.11210
O         54.50766        45.89606         2.96637
H         55.20864        46.47581         3.34913
O         57.67310        39.98518        -0.32408
H         57.77753        39.06690        -0.64932
O         70.74609        54.71061         2.02488
H         70.73399        53.74709         2.20471
O         68.54294        52.45290        -2.49000
H         67.93011        51.79859        -2.89229
O         66.58618        63.61030         1.86357
H         65.96781        64.15450         2.39786
O         50.89275        59.72022         2.17069
H         51.75110        60.09535         2.46405
O         49.58182        44.15395         2.38600
H         48.75897        44.64123         2.60436
O         71.22192        65.26791         1.14616
H         71.22746        66.23309         1.32859
O         63.21529        63.94113         1.97550
H         63.09302        63.05240         2.39431
O         57.33445        41.32467         3.03613
H         57.76682        42.15020         3.36532
O         66.60819        62.93879        -1.73626
H         67.22460        62.45881        -2.32829
O         51.26679        43.51688        -0.77698
H         51.95612        42.86982        -1.03456
H         37.44375        48.98284        -1.72507
H         35.33813        50.24039        -1.94701
H         37.45758        53.95953        -1.48176
H         35.34363        52.74063        -1.81617
H         39.06725        48.02904        -1.42713
H         39.10194        54.87445        -1.15897
H         41.15271        46.79207        -1.21475
H         41.18961        56.07637        -0.88411
H         44.74390        44.65517         0.27644
H         42.74123        45.79015        -0.47699
H         45.00275        58.21605        -1.11366
H         42.88512        57.00441        -1.28765
H         46.57058        43.68082        -0.29451
H         46.42316        59.12723        -0.01801
H         48.68258        42.46973         0.03265
H         48.44910        60.30238         0.71171
H         52.32075        40.31405         1.49551
H         50.22742        41.47749         1.16418
H         52.27062        62.39071        -0.64258
H         50.12213        61.27251        -0.20461
H         54.02090        39.36820         1.43951
H         53.91585        63.37567         0.87155
H         56.10517        38.14193         1.37486
H         56.03738        64.57100         1.02495
H         59.91937        36.70939         3.58038
H         57.73522        37.57727         2.70736
H         59.71007        66.88381         0.52971
H         57.61880        65.66042         0.56754
H         62.74818        35.13297         3.21420
H         61.40752        67.97790         0.13160
H         64.42771        33.84427         1.92461
H         63.49112        69.16410         0.45009
H         67.27189        31.93529        -1.10466
H         65.26844        33.05425        -0.21045
H         67.72920        70.77087         2.04405
H         65.51060        69.70991         1.96487
H         68.82449        30.96694        -1.46379
H         69.50756        71.59268         2.05846
H         72.75718        31.18984        -3.19684
H         70.68197        29.89777        -2.65565
H         72.95060        33.57138        -2.44487
H         71.68858        35.77175        -3.15881
H         71.50496        38.16532        -2.62805
H         72.71506        39.48694        -1.26002
H         72.90158        41.91081        -1.04260
H         73.17273        43.78912        -0.10299
H         73.23202        46.17474        -0.67762
H         73.13121        48.17890        -1.21376
H         73.11096        50.58945        -0.99121
H         73.13261        52.38550        -0.41525
H         73.15178        54.63661         0.44633
H         73.11502        56.57249         0.08851
H         73.11284        58.97807        -0.32098
H         73.15778        61.03224        -0.06789
H         73.07348        63.46239        -0.26350
H         72.85079        65.24890        -1.50326
H         72.87024        67.72420        -1.45094
H         73.24145        69.33729        -0.36564
H         73.62152        71.48980         0.77357
H         71.75615        72.61356         2.00586
