         651
 CSIRO Nanostructure Databank - Neutral Graphene Oxide Data Set
C          5.93287        31.83316        -0.34849
C          5.83760        33.18346        -0.25825
C          8.46491        27.56086        -0.13261
C          8.42486        28.98479        -0.05660
C          7.20997        29.71498        -0.20541
C          8.35924        31.85810         0.14167
C          7.19425        31.12905        -0.14516
C          8.20395        33.29066         0.58945
C          7.00667        34.00282        -0.00233
C          8.19880        36.16279        -0.27510
C          6.96464        35.35843        -0.09413
C          8.12656        37.61972        -0.07700
C         10.86665        23.27384         0.06568
C         10.83803        24.67461         0.29861
C          9.66940        25.41314         0.14187
C         10.88233        27.56015         0.24041
C          9.65778        26.84927         0.13242
C         10.89491        29.00469         0.02453
C          9.62433        29.70813         0.12473
C         10.89382        31.86803         0.64220
C          9.56623        31.11205         0.65468
C         10.84764        33.35261         0.80697
C          9.53533        34.08257         0.55638
C         10.86234        36.20146        -0.13297
C          9.56787        35.44314        -0.11624
C         10.98358        37.36063        -0.84529
C          9.10949        38.45502        -0.57918
C         10.80548        40.33851        -0.25994
C          9.49434        39.75183        -0.16413
C         10.83656        41.74585        -0.06136
C         13.27275        18.97319        -0.15474
C         13.22840        20.36362        -0.11134
C         12.03078        21.12725        -0.05253
C         13.31520        23.18114         0.66745
C         12.04242        22.51814         0.15884
C         13.36827        24.68202         0.52785
C         12.09134        25.36182         0.69637
C         13.41073        27.60036         0.56568
C         12.10538        26.90415         0.66202
C         13.42545        29.00830         0.53231
C         12.18489        29.77107         0.23264
C         13.39214        31.90408         0.94870
C         12.09008        31.21424         0.56944
C         13.40644        33.34751         0.52097
C         12.15585        34.10261         0.68387
C         13.40120        36.19774        -0.12045
C         12.13051        35.56894         0.32603
C         13.41935        37.51111        -0.52395
C         12.19211        38.23205        -0.98363
C         13.28674        40.34772        -0.15457
C         12.06483        39.64954        -0.40874
C         13.27435        41.75514         0.13455
C         12.02783        42.48482         0.05102
C         13.19337        44.65215         0.32021
C         12.01237        43.89857         0.08197
C         13.22755        46.03339         0.30816
C         15.64326        14.53896        -0.36840
C         15.65445        15.99530         0.06860
C         14.46644        16.81171        -0.16685
C         15.76741        18.87789         0.04935
C         14.49379        18.20115        -0.07879
C         15.79195        20.32991        -0.15091
C         14.48828        21.12955        -0.22559
C         15.77320        23.25096         0.09447
C         14.55094        22.53275         0.14205
C         15.81089        24.67718         0.35019
C         14.59231        25.38421         0.54012
C         15.85682        27.54990         0.61281
C         14.62099        26.85329         0.61330
C         15.86856        28.95506         0.60507
C         14.65993        29.70928         0.59924
C         15.84398        31.86790         0.42595
C         14.65754        31.15316         0.58679
C         15.85140        33.28832         0.25387
C         14.60705        34.02040         0.27198
C         15.86407        36.08518        -0.16378
C         14.62579        35.44169         0.01933
C         15.93652        37.55060        -0.37684
C         14.66433        38.29059        -0.57043
C         15.73056        40.33065         0.38292
C         14.56632        39.69664        -0.13323
C         15.69983        41.75692         0.62626
C         14.46412        42.43311         0.46205
C         15.72250        44.61735         0.78169
C         14.41522        43.88559         0.69467
C         15.73056        46.03963         0.28124
C         14.46108        46.78955         0.74065
C         15.73905        48.88172         0.39955
C         14.53523        48.22137         0.28804
C         15.78952        50.31247         0.27012
C         18.23694        10.33693         0.16792
C         18.21846        11.72074        -0.04304
C         16.99426        12.46806        -0.06496
C         18.21885        14.56461        -0.34316
C         16.97768        13.83826        -0.20507
C         18.23576        16.00720        -0.23599
C         17.00248        16.71987         0.16174
C         18.24262        18.87724        -0.02345
C         16.99127        18.19378         0.08779
C         18.30872        20.32839         0.18759
C         16.99968        21.09929         0.21154
C         18.24092        23.23404        -0.43128
C         16.98778        22.53899        -0.02200
C         18.32758        24.66267         0.02392
C         17.14917        25.27381         0.74600
C         18.32770        27.55699         0.10698
C         17.19846        26.86326         0.90420
C         18.36984        28.93477         0.10244
C         17.17414        29.66368         0.61469
C         18.35813        31.85221        -0.01089
C         17.14477        31.16346         0.47437
C         18.32198        33.25885        -0.11099
C         17.08464        33.97318         0.04295
C         18.32630        36.18079        -0.35135
C         17.07247        35.38174        -0.10858
C         18.25541        37.51223         0.36749
C         17.09282        38.25011         0.23305
C         18.09086        40.26461         1.30514
C         16.93730        39.60715         0.63984
C         18.12997        41.79037         1.43532
C         16.91694        42.47430         0.86289
C         18.23128        44.58608         0.86671
C         16.98696        43.86571         0.78194
C         18.24545        46.00687         0.83263
C         17.01198        46.75769         0.63693
C         18.17631        48.87125         1.08761
C         16.97070        48.13017         0.66813
C         18.12394        50.36039         1.09997
C         16.91247        51.06466         0.59987
C         18.11163        53.20981         0.68181
C         16.94134        52.46944         0.40993
C         18.27826        54.54602         0.23813
C         20.73040         6.13486         0.84258
C         20.71024         7.51988         0.57651
C         19.49079         8.23048         0.47498
C         20.69607        10.31207        -0.04873
C         19.45706         9.61237         0.19777
C         20.67110        11.69392        -0.34549
C         19.44911        12.41978        -0.30506
C         20.66316        14.53993        -0.84607
C         19.41723        13.83055        -0.50819
C         20.65232        16.04863        -0.75089
C         19.41360        16.74297        -0.36472
C         20.68841        18.91050        -0.31825
C         19.45390        18.17662        -0.20841
C         20.72903        20.31253        -0.36918
C         19.53097        21.07227        -0.16427
C         20.74662        23.17218        -0.51664
C         19.52455        22.45498        -0.27003
C         20.69785        24.59146        -0.61642
C         19.51527        25.31873        -0.26519
C         20.72795        27.56197        -0.90410
C         19.43293        26.79087        -0.47391
C         20.74309        29.02218        -0.71620
C         19.54512        29.68983        -0.31378
C         20.73462        31.87454        -0.79120
C         19.53156        31.11413        -0.27995
C         20.79049        33.29592        -0.30723
C         19.56330        34.00384        -0.20248
C         20.78758        36.10648         0.16514
C         19.57131        35.39792        -0.06430
C         20.72028        37.45420         0.59573
C         19.43289        37.98012         1.17945
C         20.63715        40.31352         1.33774
C         19.38333        39.50979         1.44131
C         20.65727        41.66384         1.06543
C         19.44159        42.44297         1.02096
C         20.74596        44.56259         0.97892
C         19.47365        43.83854         0.94445
C         20.70462        46.01835         1.08446
C         19.49239        46.70507         0.99237
C         20.65201        48.88411         1.70241
C         19.53023        48.22779         0.85486
C         20.67486        50.43980         1.56335
C         19.38163        51.12803         1.26064
C         21.04725        53.46718         0.82416
C         19.20819        52.48741         1.30838
C         20.80648        54.55716        -0.05812
C         19.50059        55.19791        -0.13677
C         20.55965        56.95260        -1.53404
C         19.43548        56.41276        -0.84323
C         20.50746        58.20398        -2.18338
C         23.17052         3.33139         1.32152
C         21.96139         4.02151         1.20667
C         23.19472         6.11275         0.83394
C         21.94736         5.41725         0.96007
C         23.21218         7.51899         0.59734
C         21.95884         8.23741         0.43192
C         23.20037        10.34929         0.06042
C         21.93139         9.59623         0.10279
C         23.23968        11.66036        -0.64754
C         21.91670        12.38523        -0.75642
C         23.18228        14.53616        -0.77738
C         21.96374        13.84695        -0.77527
C         23.19773        15.97215        -0.72946
C         21.95224        16.69082        -0.43886
C         23.22282        18.89906        -0.62693
C         21.97451        18.19578        -0.27245
C         23.18227        20.28895        -0.82447
C         21.96504        21.01439        -0.62859
C         23.25197        23.13889        -0.66794
C         21.95718        22.42599        -0.67912
C         23.20953        24.64418        -0.76796
C         21.89399        25.29748        -1.21883
C         23.21132        27.45939        -1.41147
C         21.94585        26.78235        -0.94963
C         23.22214        28.99799        -1.23097
C         21.97538        29.73510        -0.87983
C         23.25931        31.88432        -0.56460
C         22.04075        31.12658        -0.68334
C         23.26067        33.23811        -0.25406
C         22.01476        33.97205        -0.15380
C         23.25584        35.99643         0.51451
C         22.02474        35.37137         0.11366
C         23.23162        37.44951         0.78423
C         21.93753        38.22896         0.78719
C         23.16548        40.31097         1.42823
C         21.89001        39.52543         1.61101
C         23.20280        41.64931         1.15105
C         21.95095        42.36329         0.66307
C         23.22349        44.59293         0.73666
C         21.94281        43.86271         0.92780
C         23.22851        46.09321         0.87917
C         21.94309        46.79253         1.16676
C         23.22104        48.88370         1.04904
C         21.95889        48.15391         1.34546
C         23.20021        50.35914         0.92068
C         21.99016        51.17984         1.26095
C         23.17039        52.95722        -0.16965
C         22.05566        52.53486         0.64390
C         23.07740        54.17319        -0.92062
C         21.85641        54.93726        -0.91294
C         22.86449        56.64412        -2.37781
C         21.76241        56.17076        -1.64245
C         22.82367        57.92385        -2.96574
C         21.62659        58.71176        -2.87476
C         22.72390        60.48105        -4.15559
C         21.60304        59.99383        -3.50240
C         24.38762         3.99600         1.19743
C         25.66144         6.08460         0.82430
C         24.42826         5.39668         0.95227
C         25.69846         7.46976         0.58253
C         24.45398         8.17439         0.49085
C         25.75382        10.23418        -0.22080
C         24.49056         9.62830         0.30179
C         25.76129        11.68098        -0.60783
C         24.48874        12.44613        -0.58824
C         25.68977        14.58942        -0.53743
C         24.45936        13.82443        -0.69002
C         25.63566        15.97801        -0.54011
C         24.39871        16.69924        -0.68145
C         25.67589        18.80461        -1.01567
C         24.41591        18.13610        -0.74959
C         25.65182        20.21814        -1.49772
C         24.33596        21.01592        -1.48030
C         25.73303        23.13409        -1.10330
C         24.50276        22.43556        -0.96989
C         25.75329        24.60056        -0.96485
C         24.49908        25.36063        -0.94339
C         25.69319        27.48071        -0.61537
C         24.47291        26.73095        -0.97250
C         25.71327        28.97037        -0.66334
C         24.51497        29.75281        -1.09437
C         25.76357        31.77722        -0.04652
C         24.60431        31.27652        -0.90370
C         25.73804        33.14419         0.36700
C         24.57761        33.98970        -0.14141
C         25.61612        35.87509         1.34483
C         24.44087        35.29766         0.58857
C         25.74423        37.37908         1.04956
C         24.43566        38.06915         1.40270
C         25.69643        40.22514         1.21299
C         24.41805        39.54290         1.62048
C         25.64791        41.70371         1.46117
C         24.47399        42.37225         1.21497
C         25.68918        44.57233         1.37421
C         24.54952        43.81378         0.73648
C         25.69181        46.00753         1.52363
C         24.49785        46.81956         1.20236
C         25.75920        48.98652         1.66072
C         24.52466        48.17976         1.21701
C         25.78430        50.44575         1.09449
C         24.48541        51.12482         0.83370
C         25.57139        52.82305        -0.68508
C         24.41098        52.29886        -0.06945
C         25.44528        53.98761        -1.51611
C         24.20204        54.62508        -1.65059
C         25.31031        56.46124        -2.98940
C         24.02856        55.72592        -2.66622
C         25.22147        57.73599        -3.56994
C         23.99500        58.46301        -3.61675
C         23.91692        59.73864        -4.20401
C         26.94113         8.18735         0.50287
C         28.19692        10.30277         0.21436
C         27.01517         9.55019         0.17066
C         28.23272        11.72355         0.01636
C         27.08009        12.43822        -0.66180
C         28.07777        14.58996         0.07670
C         26.95269        13.89997        -0.28837
C         28.09179        16.06426         0.15147
C         26.81944        16.78943        -0.22060
C         28.23403        18.69778        -1.14443
C         26.86452        18.16847        -0.74880
C         28.26061        20.22385        -1.36929
C         26.95128        20.96681        -1.49927
C         28.23742        23.14072        -1.47382
C         26.95110        22.43122        -1.28143
C         28.20582        24.66545        -1.44347
C         26.94665        25.29795        -1.01926
C         28.28706        27.46022        -0.55985
C         26.98936        26.71270        -0.57891
C         28.28454        28.95288        -0.61329
C         27.01173        29.71202        -0.65067
C         28.14893        31.53470         0.65420
C         26.94568        31.04872        -0.01847
C         28.14982        33.02626         1.09581
C         26.90718        33.78621         0.84231
C         28.17083        35.87351         1.27702
C         26.93991        35.18097         1.10133
C         28.20858        37.29774         1.42934
C         26.93183        38.01303         1.79641
C         28.16917        40.18332         1.42191
C         26.96256        39.50325         1.58232
C         28.16323        41.60617         1.34666
C         26.95338        42.36530         1.65201
C         28.20354        44.60333         1.30191
C         26.95390        43.89653         1.67643
C         28.23462        45.96383         1.15440
C         27.06818        46.75094         1.56197
C         28.34213        48.88939         0.86262
C         27.09805        48.24855         1.42547
C         28.31495        50.32312         0.40790
C         27.00730        51.07799         0.45858
C         27.98188        52.71610        -1.17615
C         26.84459        52.21075        -0.48310
C         27.85319        53.89797        -1.96649
C         26.62991        54.54973        -2.13428
C         26.53190        55.79689        -2.82437
C         29.34929        12.43476         0.37611
C         30.58115        14.65062         0.06491
C         29.34927        13.92561         0.54074
C         30.57920        16.04356        -0.06761
C         29.36639        16.76931         0.00511
C         30.65799        18.91984        -0.33132
C         29.30936        18.27062        -0.08423
C         30.70634        20.25829        -0.60376
C         29.52117        20.98613        -1.11071
C         30.72450        23.14808        -1.01211
C         29.52569        22.47090        -1.14308
C         30.79249        24.61647        -1.22367
C         29.50928        25.41543        -1.36574
C         30.77245        27.53009        -0.80634
C         29.55202        26.81590        -0.94030
C         30.73048        28.89964        -0.33030
C         29.52368        29.60505        -0.12707
C         30.64079        31.53623         1.02343
C         29.44930        30.88622         0.43356
C         30.67584        33.00822         1.20149
C         29.44070        33.73781         1.16764
C         30.66112        35.86174         1.37208
C         29.42430        35.14668         1.22883
C         30.64668        37.26335         1.41453
C         29.42038        38.01028         1.39584
C         30.63518        40.19056         1.22002
C         29.43606        39.46338         1.37535
C         30.66642        41.59986         1.03472
C         29.37795        42.31090         0.95024
C         30.67484        44.51016         0.76190
C         29.37071        43.81045         0.85717
C         30.65774        45.86654         0.47877
C         29.32861        46.56322         0.29208
C         30.61248        48.66151        -0.16778
C         29.45068        48.05580         0.36425
C         30.55637        50.02158        -0.61739
C         29.38774        50.78648        -0.50872
C         29.22679        52.02459        -1.15049
C         31.83365        16.77949        -0.17686
C         33.23995        18.83929        -0.22488
C         31.88524        18.14203        -0.21544
C         33.19784        20.21863        -0.91324
C         31.99405        20.99884        -0.35754
C         33.19612        23.10870        -0.73737
C         31.98318        22.45577        -0.76193
C         33.26436        24.58572        -0.64471
C         32.00200        25.37445        -0.79092
C         33.30619        27.52850        -0.77465
C         32.01468        26.84764        -0.98916
C         33.29974        28.93176        -0.25137
C         31.97771        29.62382        -0.06153
C         33.22683        31.58429         0.90183
C         31.96506        30.82441         0.82207
C         33.18740        32.95700         1.19262
C         31.91652        33.67156         1.28834
C         33.11999        35.81110         1.47460
C         31.92099        35.12541         1.40624
C         33.19764        37.26858         1.65984
C         31.89498        38.01924         1.59044
C         33.20807        40.17800         1.13011
C         31.90861        39.44206         1.14477
C         33.15325        41.66484         1.26523
C         31.87309        42.34760         0.99052
C         33.13832        44.46510         0.58736
C         31.89147        43.75856         0.82128
C         33.08915        45.83883         0.21033
C         31.87819        46.55514         0.14430
C         31.81332        47.90607        -0.28735
C         34.46870        21.00685        -0.69839
C         35.69736        23.12208        -0.40824
C         34.46153        22.37395        -0.61260
C         35.77674        24.48795        -0.49476
C         34.57388        25.24289        -1.03156
C         35.64298        27.17774         0.29436
C         34.57774        26.74310        -0.70381
C         35.66044        28.67059         0.61338
C         34.46204        29.48499         0.45885
C         35.72195        31.57447         0.90104
C         34.46445        30.85932         0.77907
C         35.66379        33.00996         1.08986
C         34.44764        33.65758         1.26908
C         35.42120        35.81547         0.51673
C         34.46242        35.14513         1.52235
C         35.43036        37.31990         0.61915
C         34.43190        37.98997         1.23378
C         35.66590        40.16873         0.81558
C         34.51479        39.47902         1.53068
C         35.80527        41.67582         0.99089
C         34.47364        42.42890         1.12848
C         34.36832        43.79099         0.62843
C         37.00608        25.23533        -0.35252
C         38.16204        27.41298        -0.20301
C         36.99149        26.59419        -0.10317
C         38.18458        28.77444         0.05638
C         36.99554        29.44814         0.63488
C         38.21526        31.62455         0.54477
C         36.92863        30.90720         0.66963
C         38.21878        33.11667         0.67468
C         36.93064        33.80387         1.01510
C         37.94217        35.98254         0.02818
C         36.82930        35.26764         0.71397
C         37.78963        37.29384        -0.31498
C         36.46796        38.02089        -0.22619
C         36.57478        39.49111         0.09032
C         39.30946        29.58225        -0.32596
C         40.44948        31.77166        -0.55281
C         39.33723        30.95108        -0.14805
C         40.42596        33.14004        -0.48896
C         39.28014        33.88680        -0.02165
C         39.15058        35.23620        -0.26368
O         37.14836        34.81534         2.05523
O         12.24672        35.16357         1.72117
O         17.53043        27.14940         2.22602
O         32.55650        25.05194         0.55249
O         23.95265        29.52754        -2.42211
O         17.93161        49.55934         2.34762
O         32.56548        37.79805         2.88977
O         18.51292        39.69779         2.61735
O         23.04906        49.54781        -0.29875
O         11.96444        26.14980         1.92644
O         23.86667        10.42036         1.37704
O         34.35765        27.52746        -1.89566
O         10.10068        33.99519         1.89647
O         26.32712        20.47846        -2.77157
O          8.91696        35.55073        -1.41023
O         30.36280        25.10347        -2.52452
O         22.02236        17.29700         0.89841
O         27.53242        12.45955        -2.10132
O         29.12257        43.02356        -0.37545
O          9.91829        37.87438        -1.58859
O         27.71446        26.89460         0.69002
O         27.03411        43.12056         2.93348
O         27.79849        29.54138        -1.88123
O         36.41176        28.85693         1.85027
O         24.38681        38.60651         2.75591
O         20.17990        53.30171         1.90296
O         25.69013        10.60671        -1.63661
O         16.32394        16.18697         1.35177
O         23.19821        45.48237        -0.46570
O         28.13112        48.76756         2.33070
O         15.56826        38.01750        -1.72637
O         23.24118        24.03090         0.54285
O         32.77872        29.87173        -1.26979
O         26.40044        46.37614         2.77963
O         32.65683        39.67661        -0.12355
O         28.06517        51.29197         1.46358
O         22.55305        11.71373        -1.92691
O         27.21760        16.66234         1.21751
O         29.14208        20.51740        -2.49878
O         17.67171        20.72653         1.45797
O         28.14303        23.94376        -2.70996
O         31.25672        30.71045         2.08723
O         20.57690        15.40692        -2.05447
O         21.49078        51.04345         2.62026
O         38.68608        32.28353         1.78655
O         14.95188        44.32420         2.00360
O         22.81257        38.23927        -0.38534
O         25.46608        28.28666         0.60808
O         17.39052        30.50962         1.78202
O         27.97807        31.94616         2.05241
O         25.19611        51.36972         2.07785
O         19.67776        27.10765        -1.86385
O         11.73356        29.49475        -1.14678
O         15.25900        20.77479        -1.43384
O         33.83529        42.19990         2.43217
O         36.55686        42.23550        -0.08803
H         36.12026        42.00408        -0.93325
O         17.31371        24.74036         2.08778
H         17.47654        25.56191         2.65794
O         18.38991        36.48063        -1.78722
H         17.55712        36.93769        -2.04072
O         26.77231        37.77534         3.23815
H         27.50051        38.23996         3.70225
O         25.60133        49.08428         3.08150
H         26.46216        49.38198         3.45219
O         23.20733        27.23268        -2.87515
H         23.66965        28.00356        -3.28722
O         23.66320        55.02514        -3.91384
H         23.55935        55.70887        -4.60970
O         21.76986        25.02804        -2.65352
H         22.18351        25.78821        -3.13274
O         12.36586        38.45249        -2.42112
H         11.46266        38.58003        -2.79039
O         33.03722        19.96926        -2.32720
H         33.10047        20.82325        -2.80417
O         20.51249        32.00298        -2.25731
H         20.47402        31.09257        -2.62295
O         34.65416        25.09029        -2.47094
H         34.49674        25.98629        -2.86116
O         13.35779        31.91860         2.41926
H         14.18818        32.33282         2.73776
O         15.65642        45.97146        -1.17287
H         16.54030        45.72610        -1.51782
O         24.91439        43.63983        -0.68105
H         24.58153        44.44405        -1.15136
O         24.95154        31.80056        -2.22862
H         24.38482        31.32606        -2.88121
O         35.91550        37.94693        -1.60403
H         35.09141        38.48128        -1.61849
O         19.82484        48.50444        -0.54079
H         20.71999        48.15429        -0.74544
O         28.85777        18.81204         1.19129
H         28.17979        18.18230         1.55035
O         22.00591        42.24500        -0.79761
H         22.87508        42.60408        -1.08823
O         18.09453        23.35198        -1.91167
H         18.89466        23.81537        -2.24894
O         34.98781        35.44551        -0.81393
H         35.32937        36.13478        -1.43661
O         34.21821        18.03006        -0.87254
H         34.08231        18.14715        -1.83833
O         19.34230        37.29747         2.47021
H         18.91565        37.92765         3.09772
O         34.71346        39.62968         2.94671
H         34.05588        39.05068         3.39913
O         35.23825        26.52165         1.52320
H         35.75725        26.93163         2.25143
O         13.30682        22.95844         2.12937
H         12.69714        23.61611         2.52980
O         18.03208        42.12206         2.85646
H         18.39420        41.34935         3.35411
O         15.25235        14.46388        -1.75276
H         16.02334        14.69285        -2.31152
O         21.77763        39.13028         3.00321
H         22.66878        38.81573         3.30063
O          9.28752        30.89400         2.09816
H          8.59075        31.54946         2.36083
O         25.63739        40.15048        -0.28071
H         26.31153        40.76767        -0.64116
O         28.54535        18.04806        -2.38589
H         28.90463        18.73738        -2.99481
O         26.44130        12.97163        -2.89415
H         25.93458        12.15163        -3.12345
O         28.89803        46.27691        -1.09915
H         29.01605        45.31203        -1.25028
O          7.79365        33.17310         2.00852
H          8.51788        33.57510         2.55063
O         29.37891        14.11899         2.01142
H         29.16674        15.06045         2.19309
O         25.97681        37.47360        -0.35839
H         25.85338        38.41677        -0.63853
O         20.38800        48.59665         3.08299
H         20.80672        49.30234         3.62330
O         24.95204        34.39496        -1.49869
H         25.02621        33.56241        -2.03520
O         32.19529        21.00149         1.08989
H         31.49372        21.54871         1.50078
O         34.93442        35.42428         2.86333
H         34.35887        34.94873         3.49697
O         14.41939        46.88383         2.18918
H         14.48283        45.96089         2.54425
O         25.26690        35.66132         2.73447
H         25.80376        36.28387         3.28561
O         23.90255        21.18371        -2.86649
H         24.72423        21.17704        -3.41640
H          5.04381        31.23025        -0.58437
H          4.88253        33.69025        -0.46248
H          7.53068        27.00658        -0.30105
H          6.27275        29.17145        -0.39193
H          6.01342        35.85037        -0.35441
H          7.44262        37.98091         0.70395
H          9.93616        22.77609        -0.24796
H          8.73170        24.88476        -0.08579
H          8.73371        40.36293         0.34627
H          9.87899        42.28710        -0.02638
H         12.32362        18.41610        -0.15596
H         11.06442        20.61591        -0.18235
H         11.06092        44.42714        -0.07868
H         12.30111        46.59427         0.10802
H         14.85868        13.99059         0.21296
H         13.54203        16.30453        -0.48039
H         13.60868        48.78924         0.11075
H         14.87445        50.83328        -0.05049
H         17.29161         9.80216         0.34260
H         16.04446        11.92146         0.03485
H         16.07272        52.96471        -0.04937
H         17.36013        55.05449        -0.10213
H         19.77763         5.59576         0.95374
H         18.54457         7.69288         0.63716
H         18.47584        56.94850        -0.90290
H         19.58747        58.80487        -2.12988
H         23.15993         2.24898         1.51167
H         21.00797         3.48334         1.30634
H         22.68978        61.47234        -4.62906
H         20.68419        60.59554        -3.45486
H         25.33182         3.44021         1.28790
H         26.60271         5.52387         0.92224
H         26.13703        58.22289        -3.94031
H         24.80344        60.16088        -4.69838
H         27.87076         7.64336         0.72810
H         29.12067         9.81368         0.56061
H         28.75376        54.30698        -2.44799
H         27.45794        56.27862        -3.17494
H         30.20745        11.89606         0.80820
H         31.54283        14.11574         0.07565
H         31.41599        50.43019        -1.16890
H         30.05605        52.41944        -1.75593
H         32.77273        16.20672        -0.18384
H         33.56416        18.97980         0.83869
H         34.03240        46.35515        -0.02288
H         32.72550        48.40489        -0.64428
H         35.42258        20.45770        -0.66984
H         36.59515        22.54260        -0.14149
H         36.39400        41.86713         1.92515
H         35.27550        44.28366         0.24802
H         37.96645        24.70811        -0.46980
H         39.07320        26.94378        -0.60684
H         38.61507        37.82315        -0.81649
H         37.38996        40.05086        -0.39748
H         40.16435        29.08170        -0.80628
H         41.33495        31.26715        -0.96758
H         41.28779        33.71016        -0.86714
H         39.96364        35.76512        -0.78539
