         638
 CSIRO Nanostructure Databank - Neutral Graphene Oxide Data Set
C         23.27830        69.66188        -0.46465
C         23.21972        70.95468         0.09708
C         21.98432        71.53051         0.50480
C         23.11385        73.54184         1.25963
C         21.94507        72.80316         1.07159
C         25.89430        65.82804        -2.15215
C         25.81645        67.21646        -1.78861
C         24.58902        67.78280        -1.40628
C         25.71541        69.85496        -0.71002
C         24.50972        69.09247        -0.86645
C         25.67135        71.16544        -0.13103
C         24.42959        71.70943         0.27529
C         25.56925        73.74430         1.06964
C         24.37556        73.01553         0.87203
C         28.42405        61.65474        -2.52901
C         28.38393        63.05697        -2.54756
C         27.17202        63.75267        -2.44637
C         28.35481        65.95412        -2.46535
C         27.09755        65.17051        -2.38192
C         28.30989        67.42745        -2.09808
C         27.00903        68.00938        -1.69019
C         28.16096        70.13692        -1.08880
C         26.94493        69.30054        -1.15431
C         28.13011        71.39123        -0.32171
C         26.87973        71.91507         0.07931
C         28.03185        73.92910         0.90032
C         26.82400        73.21322         0.69527
C         30.91812        57.41818        -2.61953
C         30.90239        58.81221        -2.54658
C         29.67777        59.53840        -2.59369
C         30.90072        61.66831        -2.36967
C         29.64608        60.93233        -2.52075
C         30.89968        63.04071        -2.36525
C         29.67301        63.81539        -2.78426
C         30.73938        65.89301        -1.78370
C         29.63291        65.24114        -2.26387
C         30.72123        67.30482        -1.41169
C         29.55484        68.02862        -1.57517
C         30.69844        70.10596        -0.70466
C         29.51478        69.46347        -1.27877
C         30.61467        71.43725        -0.24143
C         29.33678        72.07052        -0.03891
C         30.49731        74.06506         0.84632
C         29.27847        73.37407         0.57050
C         33.28551        53.12346        -2.20056
C         33.31132        54.51950        -2.38345
C         32.11506        55.27688        -2.49870
C         33.38973        57.38827        -2.46295
C         32.13397        56.67866        -2.55005
C         33.39066        58.80531        -2.31880
C         32.14949        59.53133        -2.35872
C         33.35364        61.63798        -1.90524
C         32.14183        60.92583        -2.22386
C         33.35499        63.03046        -1.77041
C         32.17733        63.82845        -2.26253
C         33.16922        65.79944        -0.92685
C         31.96307        65.10856        -1.47540
C         33.14742        67.27112        -0.76350
C         31.94256        67.97042        -0.94253
C         33.12160        70.08274        -0.33749
C         31.91280        69.37985        -0.65376
C         33.05944        71.47793        -0.02841
C         31.82413        72.12309         0.10480
C         32.94355        74.15073         1.00734
C         31.74364        73.48343         0.61929
C         35.57757        48.74724        -1.53831
C         35.61626        50.15350        -1.69891
C         34.43221        50.93517        -1.85570
C         35.72586        53.00025        -2.14084
C         34.47818        52.34526        -2.04248
C         35.80215        54.43108        -2.39970
C         34.56693        55.23133        -2.44305
C         35.89992        57.34273        -2.36782
C         34.60247        56.62722        -2.44937
C         35.89494        58.84497        -2.10732
C         34.59275        59.52820        -2.03571
C         35.77944        61.58009        -1.30778
C         34.57405        60.89358        -1.72579
C         35.73189        62.96487        -1.04377
C         34.51477        63.71914        -1.27109
C         35.56257        65.72490        -0.16595
C         34.45819        65.08521        -0.96037
C         35.61148        67.23750        -0.26845
C         34.36879        67.96884        -0.48010
C         35.65265        70.12764        -0.25958
C         34.35154        69.36914        -0.32927
C         35.55025        71.49370         0.37430
C         34.32832        72.30241         0.02398
C         35.36726        74.17662         1.33400
C         34.19744        73.56546         0.84489
C         37.88077        44.37856        -1.11206
C         37.92399        45.79483        -1.17492
C         36.74675        46.56398        -1.38864
C         38.02319        48.67052        -1.35768
C         36.76756        47.98746        -1.42114
C         38.07226        50.06228        -1.50596
C         36.89260        50.79322        -1.72746
C         38.06274        52.92878        -1.24560
C         37.01786        52.23601        -2.13258
C         38.05769        54.44398        -1.08121
C         37.10599        55.16310        -2.02459
C         38.20932        57.28369        -1.42138
C         37.08357        56.61629        -1.89550
C         38.20389        58.68751        -1.17242
C         37.05578        59.45728        -1.42549
C         38.17647        61.52199        -0.61988
C         36.99213        60.84289        -1.09450
C         38.16501        62.92757        -0.44988
C         36.92736        63.66711        -0.62840
C         38.15193        65.81377        -0.22024
C         36.88189        65.02799        -0.36485
C         37.92672        67.05409         0.63429
C         36.77012        67.88785         0.11910
C         37.93362        69.97842         0.73657
C         36.81017        69.31866         0.26255
C         37.91255        71.38280         1.04789
C         36.65856        72.10676         0.90816
C         37.80121        74.15482         1.69597
C         36.61379        73.50998         1.32056
C         40.29578        40.02508        -1.00813
C         40.20261        41.41329        -0.78260
C         39.04714        42.18947        -0.96406
C         40.23086        44.33437        -0.48013
C         39.04318        43.62308        -0.84006
C         40.30008        45.74760        -0.54790
C         39.17301        46.46407        -0.98211
C         40.44038        48.62560        -0.66017
C         39.32179        47.90296        -1.38156
C         40.49098        50.00861        -0.77259
C         39.42685        50.75361        -1.54960
C         40.56529        52.91745        -0.70477
C         39.31907        52.17771        -1.01339
C         40.60403        54.34730        -0.79874
C         39.44086        55.06475        -1.11706
C         40.76815        57.24056        -0.94861
C         39.47903        56.50443        -1.32587
C         40.66151        58.64224        -0.58223
C         39.32575        59.27911        -0.34442
C         40.52202        61.43583         0.13270
C         39.37012        60.78828        -0.34700
C         40.49994        62.85474         0.40146
C         39.32805        63.59547         0.06188
C         40.40823        65.63561         0.89168
C         39.31412        64.99316         0.29579
C         40.35834        67.07878         1.10106
C         39.22927        67.79427         0.82999
C         40.35933        69.96158         1.44221
C         39.26882        69.28944         0.66266
C         40.30801        71.31543         1.68446
C         39.06795        72.04576         1.48117
C         40.24511        74.14976         2.01845
C         39.04421        73.46988         1.74219
C         42.77989        35.74159        -1.04960
C         42.74762        37.14090        -0.85619
C         41.53708        37.87766        -0.96957
C         42.74980        39.95323        -0.55648
C         41.51293        39.27988        -0.83260
C         42.72197        41.42649        -0.50061
C         41.40927        42.09232        -0.25504
C         42.71473        44.29806         0.07740
C         41.42632        43.58486        -0.09072
C         42.69366        45.75241         0.16560
C         41.51772        46.45735        -0.14976
C         42.67618        48.58025         0.41964
C         41.53841        47.88799        -0.10740
C         42.59018        50.01731         0.47995
C         41.57485        50.73063        -0.19470
C         42.86216        52.86975         0.14920
C         41.66815        52.17854        -0.26942
C         42.95113        54.27764         0.03875
C         41.84672        55.03528        -0.46456
C         43.05063        57.13518         0.05806
C         41.90936        56.44713        -0.46163
C         43.04847        58.53819         0.18007
C         41.93236        59.38755        -0.39320
C         42.89280        61.34580         0.79667
C         41.76302        60.72294         0.28625
C         42.79143        62.70123         1.46801
C         41.62662        63.52036         0.95479
C         42.81354        65.61353         1.63785
C         41.60126        64.90656         1.19881
C         42.78748        66.99694         1.87852
C         41.45784        67.71829         1.92120
C         42.67880        69.87140         2.45574
C         41.65199        69.19731         1.54304
C         42.73286        71.36094         2.22869
C         41.51866        72.04471         2.04550
C         42.71385        74.16191         2.33527
C         41.48792        73.47064         2.11764
C         45.25907        32.93667        -1.21780
C         44.04245        33.62000        -1.23195
C         45.20982        35.71999        -0.68716
C         43.98999        35.02164        -0.97886
C         45.19116        37.11418        -0.51110
C         43.98120        37.83096        -0.58528
C         45.19557        39.94740        -0.09389
C         43.97210        39.26494        -0.42163
C         45.23080        41.42057        -0.01401
C         43.96794        42.19352        -0.19655
C         45.00673        44.30265         0.97433
C         43.86719        43.58647         0.28360
C         45.19241        45.65253         0.26390
C         43.90676        46.45851         0.40527
C         45.20755        48.49523         0.82882
C         43.91022        47.84332         0.62326
C         45.34270        49.71095         1.43747
C         43.54738        50.82288         1.17420
C         45.08601        52.79063         1.49345
C         43.85899        52.13361         0.86771
C         45.26050        54.19011         0.93308
C         44.18494        54.93307         0.44131
C         45.37963        57.06809         0.84864
C         44.24195        56.38509         0.41485
C         45.38883        58.49925         1.04622
C         44.17970        59.23405         0.67717
C         45.42129        61.34433         1.01965
C         44.11859        60.62589         0.86383
C         45.28891        62.80441         1.37027
C         44.10090        63.46436         1.47249
C         45.26041        65.61249         1.95929
C         44.06075        64.90651         1.69881
C         45.24282        67.03539         2.17806
C         43.98918        67.73704         2.14837
C         45.19648        69.88704         2.42391
C         43.99486        69.15004         2.32499
C         45.19355        71.32506         2.49065
C         43.94621        72.05824         2.41776
C         45.18812        74.25715         2.73314
C         43.91972        73.48455         2.45369
C         46.45254        33.58964        -0.91571
C         47.61662        35.62064        -0.15394
C         46.46368        34.98185        -0.59847
C         47.51948        37.01664         0.39773
C         46.51916        37.83640        -0.41236
C         47.58167        39.87249         0.59389
C         46.41854        39.26026         0.09609
C         47.56271        41.26871         1.18444
C         46.40694        42.08413         0.61871
C         47.62070        44.22032         1.09901
C         46.31061        43.50599         1.09108
C         47.63041        45.68805         0.88028
C         46.46417        46.36881         0.64089
C         47.73475        48.51092         0.82303
C         46.47630        47.84394         0.32155
C         47.75340        49.89304         1.18355
C         46.48973        50.58745         1.34342
C         47.64397        52.69566         1.61602
C         46.40541        51.98160         1.41436
C         47.72990        54.08538         1.59156
C         46.57498        54.81245         1.03171
C         47.78718        56.97943         1.68494
C         46.64054        56.35043         1.02314
C         47.62941        58.38022         2.22491
C         46.48097        59.13864         1.59855
C         47.70612        61.31750         2.02732
C         46.37426        60.59915         1.96246
C         47.71121        62.68028         2.02095
C         46.60520        63.52809         1.42244
C         47.70789        65.59992         2.23423
C         46.51801        64.92383         1.98380
C         47.71168        67.04489         2.37980
C         46.44695        67.75143         2.36705
C         47.66281        69.90824         2.48993
C         46.44958        69.18089         2.44964
C         47.65741        71.31552         2.39104
C         46.42022        72.03299         2.45819
C         47.63820        74.14527         2.26536
C         46.45222        73.47510         2.45387
C         48.82251        37.76203         0.52592
C         50.09373        39.82355         1.09716
C         48.81184        39.12053         0.69134
C         50.08678        41.32308         0.88996
C         48.86035        42.04232         0.94875
C         50.09995        44.16816         0.82335
C         48.87223        43.44411         0.89122
C         50.12580        45.60104         0.86366
C         48.91239        46.36214         0.85956
C         50.22724        48.53376         0.80027
C         48.92805        47.77559         0.85804
C         50.20084        49.85511         1.54072
C         48.93668        50.52015         1.61143
C         50.11271        52.66062         2.36416
C         48.82982        51.92305         2.04205
C         50.15010        54.11333         2.11918
C         48.96281        54.80247         1.84058
C         50.17935        56.97214         2.24872
C         48.95177        56.26343         1.90647
C         50.16891        58.41051         2.30725
C         48.94246        59.13813         2.22606
C         50.18646        61.23764         2.22857
C         48.94679        60.54660         2.21230
C         50.17335        62.70577         1.88926
C         48.95609        63.38905         2.48220
C         50.16815        65.54065         2.29153
C         48.96100        64.88060         2.25720
C         50.17840        66.99800         2.46970
C         48.90655        67.72910         2.47406
C         50.13963        69.87133         2.02371
C         48.97535        69.20998         2.74591
C         50.08449        71.31346         1.84613
C         48.88500        72.02933         2.14545
C         50.05946        74.14297         1.70033
C         48.87644        73.44814         2.04315
C         51.28718        42.00864         0.79011
C         52.56072        44.12738         0.83162
C         51.33231        43.43410         0.78499
C         52.59946        45.53039         0.96220
C         51.38029        46.28363         0.95230
C         52.64635        48.35500         1.36593
C         51.43693        47.69920         1.10523
C         52.66283        49.78191         1.72607
C         51.39249        50.46649         1.90620
C         52.63423        52.62049         1.96176
C         51.41388        51.86374         2.53196
C         52.60779        54.10320         2.26701
C         51.42186        54.81058         2.23834
C         52.62771        56.99595         2.46762
C         51.40214        56.27438         2.33463
C         52.63444        58.40642         2.51213
C         51.40894        59.11643         2.44071
C         52.64156        61.29470         2.43334
C         51.41276        60.56006         2.39567
C         52.66222        62.70486         2.24861
C         51.45016        63.43654         2.18096
C         52.66111        65.55119         1.98278
C         51.44080        64.84050         2.20040
C         52.64402        66.98777         1.72238
C         51.44037        67.75263         2.13106
C         52.36206        69.78421         0.93806
C         51.27382        69.15875         1.70986
C         52.38374        71.28694         0.91907
C         51.22969        72.02183         1.45072
C         52.43790        74.11773         0.94659
C         51.24356        73.44926         1.38442
C         53.83113        46.23410         1.11224
C         55.18749        48.27654         1.55180
C         53.85917        47.59763         1.33961
C         55.11382        49.78542         1.48171
C         53.87614        50.44683         1.86813
C         55.17109        52.64795         1.94789
C         53.92994        51.87332         2.39826
C         55.07741        54.11668         1.83429
C         53.92568        54.78634         2.54859
C         55.05850        56.95527         2.12002
C         53.89683        56.28208         2.35746
C         55.24328        58.40978         2.47204
C         53.89205        59.08185         3.03361
C         55.12400        61.29655         2.18054
C         53.93811        60.67068         2.90631
C         55.12206        62.69485         2.00351
C         53.90175        63.42628         2.12937
C         55.08501        65.51046         1.48080
C         53.86858        64.82298         1.85485
C         54.96884        66.85972         0.80789
C         53.71700        67.62096         1.16433
C         54.88937        69.83688         1.20550
C         53.67760        69.04688         0.66120
C         54.86654        71.29547         0.75328
C         53.67658        71.98781         0.75696
C         54.83429        74.11524         0.32235
C         53.62566        73.43735         0.65746
C         56.21244        50.48088         1.07399
C         57.17714        52.76751         0.39519
C         56.31606        51.94492         1.23243
C         57.13964        54.15871         0.49073
C         56.11516        54.81785         1.29868
C         56.54790        56.97987         0.13029
C         56.27376        56.30477         1.50887
C         56.63845        58.49986         0.26836
C         56.02103        59.16030         1.44516
C         57.45176        61.18283         1.13906
C         56.16591        60.53436         1.59273
C         57.41427        62.68307         1.11734
C         56.32198        63.39364         1.56467
C         57.59005        65.61104         1.38401
C         56.28410        64.84240         1.43564
C         57.46047        67.02852         0.89953
C         56.22945        67.70693         0.91031
C         57.45086        69.90067         0.93281
C         56.16575        69.10953         0.89161
C         57.31952        71.33581         0.47265
C         56.11171        71.99663         0.48570
C         57.23437        74.11148        -0.19479
C         56.04389        73.43195         0.19951
C         58.00867        54.96751        -0.29097
C         58.68006        57.09799        -1.24329
C         57.80727        56.36236        -0.47433
C         58.43715        58.53356        -1.64691
C         57.60328        59.28063        -0.59423
C         59.13792        61.24962        -0.70360
C         58.05427        60.61542        -0.12860
C         59.44854        62.63618        -0.40655
C         58.62779        63.34887         0.59459
C         59.63282        65.55245        -0.24523
C         58.72647        64.84534         0.68971
C         59.65766        66.95643        -0.27227
C         58.75765        67.75371         0.66455
C         59.72514        69.88599        -0.28940
C         58.47035        69.13758         0.06487
C         59.71818        71.27541        -0.37220
C         58.62456        72.08227         0.30518
C         59.61385        74.10319        -0.80232
C         58.46326        73.46418        -0.28292
C         59.72684        59.23743        -1.98384
C         61.33613        61.12461        -2.00134
C         60.00340        60.51108        -1.62960
C         61.33243        62.63614        -1.99973
C         60.42836        63.33894        -1.11599
C         61.49642        65.47986        -1.82078
C         60.52265        64.78916        -1.04734
C         61.57266        66.88662        -1.76948
C         60.62939        67.64038        -1.03975
C         61.70834        69.76030        -1.71382
C         60.73330        69.11264        -0.98812
C         62.00779        71.21459        -1.47558
C         60.79507        71.97564        -0.98398
C         62.02767        74.07186        -1.59482
C         60.77492        73.37791        -1.11093
C         62.26104        63.31285        -2.75059
C         63.28604        65.40900        -3.53237
C         62.38774        64.74222        -2.70563
C         63.42453        66.83163        -3.51167
C         62.76293        67.59638        -2.38213
C         63.45732        69.71597        -3.55624
C         62.35309        68.99459        -2.83663
C         63.48828        71.13438        -3.55858
C         62.70859        71.89517        -2.63180
C         63.54184        73.95231        -3.63073
C         62.73658        73.28591        -2.67539
C         64.20292        67.52421        -4.41488
C         65.15671        69.66284        -5.30291
C         64.28908        68.97283        -4.40905
C         65.16018        71.04785        -5.37244
C         64.33297        71.80885        -4.49206
C         65.26893        73.91525        -5.41777
C         64.35000        73.23815        -4.51296
C         66.02111        71.73811        -6.40700
C         66.06537        73.23214        -6.26226
O         56.16727        59.21940        -0.95640
O         32.20169        65.04021        -0.04474
O         46.95968        43.77141         2.37719
O         41.21403        42.65734         1.07201
O         53.84533        58.74223         4.38729
O         49.18118        52.25529         3.43774
O         28.37526        66.98686        -3.49929
O         38.27955        52.27475         0.04440
O         59.46254        64.00639         1.64723
O         43.47362        42.06538        -1.59263
O         46.98621        55.55986        -0.16525
O         36.88859        54.73559        -3.39718
O         44.27099        50.20434         2.20365
O         40.42106        56.93621        -2.37822
O         46.34142        42.00033        -0.83176
O         51.93002        70.49197        -0.27374
O         51.10244        67.48169         3.54208
O         56.37874        52.28626         2.67896
O         36.17437        58.29877        -3.44334
O         28.88166        70.24778        -2.35767
O         29.78473        63.95787        -4.23987
H         30.64944        64.40175        -4.40941
O         34.54994        72.75491        -1.35865
H         34.92739        71.98214        -1.84855
O         50.36226        48.90354        -0.62996
H         51.21357        49.38340        -0.72343
O         42.49631        62.43362         2.87831
H         41.64868        61.94280         2.91850
O         54.78564        69.85733         2.65998
H         55.69278        69.99762         3.01615
O         46.96586        36.88808         1.74762
H         47.63089        36.43503         2.30661
O         57.67563        58.48629        -2.89136
H         56.73468        58.65714        -2.64893
O         56.16678        47.75510         0.64637
H         55.82433        47.85012        -0.26565
O         55.42853        56.66747        -0.72287
H         55.38332        57.36875        -1.41061
O         44.54078        44.57172         2.31515
H         45.33215        44.57981         2.90303
O         47.25668        58.23195         3.65614
H         48.00974        57.79806         4.11348
O         51.21991        39.22064         0.45438
H         51.10496        39.31142        -0.51367
O         46.06072        61.26454        -0.30433
H         45.36334        61.38797        -0.98366
O         56.12840        58.42414         3.63379
H         55.47539        58.43249         4.40752
O         46.47853        47.95761        -1.15340
H         47.40901        47.85872        -1.45129
O         58.42141        60.79741         2.18473
H         57.98191        60.90587         3.05561
O         57.44526        56.50594         2.32201
H         57.20475        57.12716         3.05777
O         61.28550        68.82314        -3.83102
H         61.68934        68.40748        -4.62322
O         42.40103        59.72658        -1.77762
H         42.29429        58.91579        -2.32318
O         35.99314        70.39387        -1.68924
H         36.96579        70.52879        -1.73582
O         50.02261        62.77077         0.43447
H         50.81663        62.36632         0.02631
O         45.18938        75.50845         2.03767
H         45.18592        75.32471         1.07623
O         54.17282        54.58609         3.99076
H         53.62376        55.23492         4.48205
O         39.72052        47.88232        -2.80051
H         39.85954        48.82490        -3.07340
O         44.81987        52.95032         2.92044
H         44.64426        52.04968         3.27537
O         59.47530        67.90448         1.91311
H         59.11925        67.22619         2.54026
O         47.04513        63.74258         0.03616
H         47.05111        62.84899        -0.38918
O         49.22648        69.36041         4.18470
H         50.01236        68.79158         4.38197
O         37.57864        52.20985        -3.49385
H         37.45608        53.12345        -3.86539
O         49.04227        63.21056         3.92415
H         48.23492        63.58835         4.33111
O         61.81311        60.60758        -3.24404
H         61.14136        60.79043        -3.93231
O         37.49971        54.73309         0.23300
H         37.81037        54.00861         0.82701
O         62.98762        71.27441        -0.36004
H         62.62901        70.72930         0.37374
O         57.85512        69.95853         2.32745
H         58.59810        70.61060         2.38449
O         53.86099        68.98687        -0.77720
H         53.20361        69.61922        -1.16672
O         39.65430        69.47125        -0.76036
H         40.57257        69.11299        -0.84046
O         38.51710        66.27782        -1.55735
H         38.68434        65.48956        -2.11550
O         52.60047        52.50016         0.50789
H         51.99411        53.18279         0.15047
O         38.97091        58.91448         1.06291
H         38.12727        59.36943         1.27465
O         54.02939        51.77354         3.82329
H         54.17018        52.68428         4.17908
O         51.59564        51.69554         3.94746
H         50.69982        51.55852         4.33339
O         47.04887        37.92092        -1.76575
H         46.47128        38.52350        -2.27997
O         40.93472        67.58829         3.26808
H         41.48103        68.15245         3.86682
O         54.07054        61.16710         4.26491
H         53.92801        60.34705         4.83255
O         45.81060        60.64406         3.29864
H         46.23214        59.91884         3.81807
O         39.85476        50.78307        -2.93892
H         39.13463        51.24444        -3.44629
O         63.74925        67.74892        -1.32694
H         64.03724        66.85403        -1.05076
O         67.35232        71.19466        -6.39811
H         67.74502        71.37252        -5.51909
O         42.25826        69.74417         3.85719
H         42.94806        70.17044         4.40858
O         35.16398        65.47115         1.23751
H         35.10480        64.49957         1.35860
O         45.33693        45.38070        -1.15637
H         45.56026        46.24171        -1.58587
O         59.13585        72.29992         1.68573
H         58.61124        73.03093         2.07808
O         57.78183        68.93890        -1.20341
H         58.42899        68.59997        -1.85846
O         32.51067        64.28892        -3.62789
H         32.80124        63.50379        -4.14017
O         47.39282        41.10879         2.61541
H         47.35765        42.01804         3.00013
O         42.22511        69.17877         0.19804
H         42.47528        70.09983        -0.03068
O         37.55759        66.56538         1.95178
H         37.48611        67.33023         2.55915
O         62.92697        74.17948        -0.47066
H         63.16429        73.25671        -0.20888
O         57.99724        65.74339         2.79306
H         58.56312        64.95175         2.98001
O         54.86161        66.50678        -0.61217
H         54.57923        67.33213        -1.08092
H         23.06647        74.54216         1.71339
H         25.52202        74.74127         1.53261
H         27.98991        74.92953         1.35607
H         30.44529        75.07313         1.28476
H         32.86433        75.12716         1.51051
H         35.30319        75.18114         1.78050
H         37.77449        75.22642         1.94473
H         40.22256        75.24119         2.15603
H         42.70967        75.26026         2.39583
H         45.18927        74.51413         3.83195
H         47.63506        75.24543         2.24671
H         50.03573        75.24018         1.62367
H         52.42647        75.21625         0.88223
H         54.81431        75.20615         0.18000
H         57.15769        75.16322        -0.51139
H         59.56342        75.17378        -1.05502
H         61.79819        75.11015        -1.94127
H         63.56840        75.05232        -3.63724
H         65.32117        75.01370        -5.36942
H         22.35015        69.08481        -0.59103
H         21.05548        70.95833         0.36832
H         20.97978        73.23002         1.37859
H         24.96569        65.23764        -2.11942
H         23.66947        67.18553        -1.49546
H         27.47792        61.09291        -2.48850
H         26.23781        63.17668        -2.35158
H         29.96855        56.87023        -2.71066
H         28.73592        58.98088        -2.70641
H         32.31273        52.61130        -2.16578
H         31.14845        54.75188        -2.50420
H         34.60772        48.22855        -1.55319
H         33.45481        50.43219        -1.83442
H         36.93183        43.86115        -1.31593
H         35.78290        46.04354        -1.49324
H         39.39571        39.47468        -1.32195
H         38.11978        41.69955        -1.29784
H         41.84677        35.20801        -1.28381
H         40.60366        37.33806        -1.18887
H         45.27460        31.85950        -1.43705
H         43.11159        33.08230        -1.46223
H         47.39604        33.02628        -0.88116
H         48.55134        35.04833        -0.04038
H         49.76471        37.20591         0.65366
H         50.23234        39.64969         2.20147
H         52.22944        41.44099         0.77518
H         53.50223        43.55867         0.82580
H         54.77755        45.67475         1.07859
H         55.55023        48.01969         2.58660
H         57.09540        49.92240         0.72474
H         57.82864        52.28421        -0.34871
H         58.84058        54.48461        -0.82750
H         59.54734        56.58760        -1.69254
H         60.43453        58.69582        -2.63070
H         62.08004        60.79949        -1.21825
H         62.93641        62.74080        -3.40464
H         63.87632        64.83037        -4.25988
H         64.77012        66.97205        -5.18053
H         65.81183        69.08566        -5.97175
H         65.60350        71.50520        -7.42896
H         66.77223        73.77023        -6.91160
