         424
 CSIRO Nanostructure Databank - Neutral Graphene Oxide Data Set
C          1.18313         3.55865        -0.76303
C         -0.01735         4.25648        -0.73826
C          1.16114         6.38620        -0.46167
C         -0.03672         5.64809        -0.59333
C          1.16474         7.82915        -0.30390
C         -0.04152         8.57027        -0.21984
C          1.17452        10.67080         0.08593
C         -0.03907         9.93718        -0.03622
C          1.17930        12.09737         0.29820
C         -0.02584        12.85945         0.33386
C          1.22294        14.94163         0.60945
C         -0.00703        14.22176         0.50843
C          1.24260        16.37248         0.68212
C          0.06076        17.12145         1.06240
C          1.17314        19.21937         0.40506
C          0.03931        18.47528         1.06030
C          1.20727        20.70891         0.65883
C          0.01592        21.42726         0.39680
C          1.18279        23.54098         0.64860
C         -0.01123        22.80520         0.44721
C          1.19661        24.98324         0.64216
C         -0.02757        25.74046         0.58381
C          1.17397        27.87071         0.44066
C         -0.02798        27.10852         0.45145
C          1.18894        29.26498         0.24754
C         -0.01742        30.01698         0.06278
C          1.22148        32.12234        -0.06521
C         -0.00071        31.37662        -0.09102
C          1.23436        33.52817        -0.17481
C          0.06525        34.30524        -0.40936
C          1.35577        36.39025        -0.56413
C          0.11184        35.67629        -0.55877
C          1.40788        37.78788        -0.84412
C          3.65051         3.56423        -0.68967
C          2.41537         4.25304        -0.63722
C          3.63588         6.38461        -0.35647
C          2.39879         5.67760        -0.47768
C          3.61927         7.80134        -0.27134
C          2.40305         8.53550        -0.21963
C          3.62928        10.68704         0.19266
C          2.40698         9.96845        -0.01749
C          3.63426        12.04348         0.51050
C          2.41214        12.77948         0.49342
C          3.69734        14.91154         0.64333
C          2.43994        14.20964         0.60123
C          3.69023        16.32858         0.52260
C          2.48035        17.06111         0.52941
C          3.64335        19.21303         0.85416
C          2.48990        18.51482         0.62137
C          3.60040        20.61607         1.42558
C          2.38783        21.39619         0.94023
C          3.63181        23.55779         0.83437
C          2.40484        22.82781         0.85679
C          3.64611        24.94833         0.64373
C          2.41952        25.67135         0.64275
C          3.69212        27.83363         0.31885
C          2.44784        27.16803         0.84613
C          3.68225        29.22332         0.14269
C          2.44448        29.98113         0.18460
C          3.72125        32.07878        -0.11616
C          2.46176        31.37800         0.03776
C          3.76228        33.48870        -0.13361
C          2.50765        34.26446         0.16209
C          3.80257        36.34674        -0.40648
C          2.55830        35.68389        -0.34201
C          3.84251        37.75639        -0.68105
C          2.61400        38.45058        -0.88987
C          6.12169         3.55375        -0.66681
C          4.87795         4.24688        -0.56741
C          6.12196         6.35215        -0.16842
C          4.87596         5.66531        -0.37535
C          6.12426         7.74395        -0.02948
C          4.90244         8.51418        -0.27935
C          6.17711        10.66160         0.39872
C          4.91833        10.00255        -0.02683
C          6.17837        12.02830         0.70471
C          4.87993        12.72475         1.03429
C          6.16965        14.89314         0.89142
C          4.92654        14.20714         0.76433
C          6.20429        16.30155         0.83800
C          4.97387        17.03726         0.50573
C          6.13685        19.17213         1.40730
C          4.94462        18.54192         0.71972
C          6.19204        20.65182         1.10754
C          4.92575        21.38026         1.30846
C          6.15352        23.48106         0.51576
C          4.91971        22.86231         1.03827
C          6.10682        24.90351         0.22359
C          4.90410        25.64271         0.40126
C          6.12014        27.70522        -0.12885
C          4.89876        27.05383         0.19102
C          6.08568        29.12819        -0.52004
C          4.88897        29.92837        -0.20961
C          6.14825        32.06535        -0.78905
C          4.91536        31.31273        -0.31839
C          6.26994        33.41178        -0.06903
C          4.99008        34.20723        -0.20339
C          6.32170        36.34319        -0.06929
C          5.01941        35.59988        -0.24619
C          6.30684        37.75653        -0.61587
C          5.08309        38.42321        -0.79130
C          8.59236         3.55630        -0.78968
C          7.34454         4.22303        -0.55953
C          8.60980         6.29208        -0.16014
C          7.37228         5.62671        -0.24667
C          8.65669         7.67932         0.31480
C          7.33033         8.45148         0.37314
C          8.62063        10.57113         0.59609
C          7.38139         9.92269         0.39210
C          8.61763        11.96370         0.85636
C          7.40913        12.70470         0.92379
C          8.62378        14.86233         1.14394
C          7.41985        14.15684         1.05394
C          8.67367        16.29875         1.11063
C          7.42403        17.04588         1.01985
C          8.66542        19.20950         1.40592
C          7.41387        18.43349         1.12065
C          8.65152        20.63268         0.84161
C          7.36634        21.33474         0.84189
C          8.55687        23.34871        -0.09410
C          7.32570        22.73894         0.46120
C          8.55179        24.83519        -0.33946
C          7.31521        25.59113        -0.06278
C          8.65195        27.71509        -0.04328
C          7.33184        26.99104        -0.16480
C          8.65914        29.11380        -0.58852
C          7.40792        29.84613        -0.74857
C          8.66785        31.96136        -0.72800
C          7.44223        31.29724        -0.67989
C          8.69454        33.41936        -0.73332
C          7.51806        34.15517        -0.50054
C          8.73991        36.25498        -0.77468
C          7.53858        35.56347        -0.51795
C          8.76462        37.70642        -0.85829
C          7.52569        38.40755        -0.83658
C         11.04889         3.49651        -1.17911
C          9.79182         4.23586        -0.79058
C         11.07199         6.35346        -0.43119
C          9.83539         5.63661        -0.47575
C         11.09628         7.76308        -0.13594
C          9.89343         8.45959         0.18799
C         11.11797        10.56468         0.45055
C          9.87919         9.84414         0.44944
C         11.15176        11.95233         0.76245
C          9.89741        12.61938         1.15429
C         11.16507        14.83723         1.06252
C          9.89828        14.13416         1.31078
C         11.15350        16.25090         1.04257
C          9.90146        16.97952         1.15302
C         11.08649        19.10787         0.88544
C          9.91796        18.42839         1.08570
C         11.08156        20.49259         0.30149
C          9.82850        21.28810         0.55877
C         11.04651        23.35629        -0.08512
C          9.86936        22.68514         0.12961
C         11.07753        24.72649        -0.75325
C          9.84455        25.55146        -0.42795
C         11.11158        27.64313        -0.68285
C          9.87557        26.91315        -0.42109
C         11.09577        29.01656        -0.83601
C          9.86649        29.78784        -0.74700
C         11.13765        31.91028        -1.05178
C          9.88521        31.21952        -0.86053
C         11.14065        33.36475        -1.09528
C          9.93409        34.09635        -0.93689
C         11.18074        36.22730        -1.10733
C          9.95182        35.52897        -0.95394
C         11.21324        37.67190        -1.14931
C          9.98255        38.37448        -1.04685
C         13.52031         3.55627        -0.92986
C         12.32730         4.24505        -0.88536
C         13.54592         6.35710        -0.55070
C         12.31092         5.66038        -0.63710
C         13.56310         7.78694        -0.35244
C         12.32635         8.47795        -0.12862
C         13.56780        10.59482         0.17612
C         12.33743         9.87556         0.16715
C         13.58302        11.99233         0.43659
C         12.35889        12.67840         0.73071
C         13.60499        14.82847         0.75763
C         12.37318        14.11774         0.88897
C         13.61063        16.25294         0.79383
C         12.38445        16.93953         0.93593
C         13.64442        19.14922         0.73254
C         12.37369        18.40391         1.00568
C         13.56532        20.57992         0.36060
C         12.38632        21.25037         0.39337
C         13.61228        23.40252        -0.13250
C         12.34785        22.75891         0.40351
C         13.60329        24.80950        -0.36900
C         12.36447        25.51157        -0.55195
C         13.60944        27.63939        -0.79724
C         12.36622        26.89913        -0.72271
C         13.60644        29.03043        -1.00568
C         12.30838        29.70033        -1.39908
C         13.59151        31.87816        -1.57498
C         12.31475        31.19087        -1.20269
C         13.59099        33.34469        -1.31394
C         12.37170        34.06604        -1.24902
C         13.62214        36.19652        -1.42785
C         12.38619        35.50332        -1.22822
C         13.69166        37.65214        -1.31618
C         12.45033        38.34041        -1.25044
C         15.99326         3.51538        -0.78461
C         14.77600         4.22295        -0.77250
C         16.02497         6.33662        -0.52702
C         14.77691         5.64724        -0.63175
C         16.04464         7.79996        -0.48397
C         14.77748         8.49677        -0.35929
C         16.00047        10.63461        -0.21506
C         14.79114         9.91741        -0.14679
C         16.04132        12.00791         0.13641
C         14.81948        12.70392         0.41426
C         16.07521        14.82111         0.52290
C         14.83777        14.11646         0.57933
C         16.08712        16.24746         0.52045
C         14.85494        16.97800         0.60924
C         16.09364        19.09518         0.29325
C         14.87371        18.37805         0.47872
C         16.09632        20.50819         0.13369
C         14.80797        21.20069        -0.22914
C         16.07235        23.37965        -0.17038
C         14.82281        22.70094        -0.11481
C         16.07584        24.80514        -0.27278
C         14.84278        25.50718        -0.42330
C         16.08200        27.60867        -0.66816
C         14.86131        26.92669        -0.63330
C         16.13695        29.06559        -1.04945
C         14.81377        29.79013        -0.98942
C         16.02479        31.96441        -0.82561
C         14.83762        31.18546        -1.08650
C         16.06569        33.36039        -1.01740
C         14.82804        34.01870        -1.37098
C         16.53139        36.47756        -1.06442
C         14.74552        35.40795        -1.66329
C         16.15993        37.83303        -0.67964
C         14.88320        38.36999        -1.03151
C         18.47666         3.50259        -0.67414
C         17.22303         4.19095        -0.63728
C         18.49134         6.34329        -0.17523
C         17.21624         5.61368        -0.50903
C         18.52428         7.73837        -0.81388
C         17.22850         8.49536        -0.60328
C         18.51094        10.67997        -0.52019
C         17.20702         9.98738        -0.84496
C         18.52010        11.93571         0.03703
C         17.29182        12.68355         0.24719
C         18.54233        14.81318         0.52271
C         17.31382        14.09387         0.46083
C         18.56132        16.22841         0.44682
C         17.31974        16.95335         0.42173
C         18.56306        19.09015         0.28334
C         17.33048        18.37474         0.33093
C         18.55513        20.51626         0.20815
C         17.30587        21.22437         0.09670
C         18.53439        23.37672         0.01771
C         17.30558        22.66063        -0.04650
C         18.53563        24.81109        -0.04462
C         17.30954        25.51579        -0.23198
C         18.53114        27.65819        -0.22299
C         17.31778        26.94024        -0.39859
C         18.57490        29.16085        -0.41238
C         17.18543        29.76289        -0.19041
C         18.23473        31.93881         0.26544
C         17.19858        31.26098        -0.32008
C         17.95046        33.38360         0.61656
C         17.39098        34.11437        -0.64782
C         18.40934        36.30860         0.46045
C         17.31320        35.62646        -0.34766
C         18.11998        37.77076         0.79684
C         17.03821        38.47925         0.19902
C         19.69037         4.19540        -0.67424
C         20.95668         6.33780        -0.67249
C         19.74453         5.58748        -0.54103
C         20.99965         7.70270        -0.61066
C         19.76699         8.53402        -0.33818
C         21.03210        10.70539        -0.60244
C         19.77092         9.97001        -0.97051
C         21.04634        11.87101         0.05623
C         19.80060        12.55962         0.45126
C         21.05131        14.84562         0.59804
C         19.80650        14.07673         0.69497
C         21.03134        16.19450         0.44540
C         19.80069        16.94506         0.40129
C         21.01172        19.12428         0.30615
C         19.80254        18.36953         0.32790
C         20.99980        20.49855         0.25787
C         19.78317        21.23573         0.20857
C         20.96919        23.42864         0.26722
C         19.77365        22.67593         0.16297
C         20.95973        24.81121         0.25524
C         19.75431        25.53612         0.10388
C         20.85204        27.75307         0.53378
C         19.72829        26.98497         0.10998
C         20.76701        29.12968         0.76230
C         19.61777        29.86019         0.43726
C         20.43150        32.03258         1.33426
C         19.45240        31.26577         0.70239
C         20.24091        33.41688         1.62184
C         19.09235        34.09102         1.30979
C         19.96077        36.25841         2.40919
C         18.83503        35.53037         1.70995
C         19.97449        37.61602         2.40380
C         18.98364        38.37895         1.69060
O          7.95476         7.87770         1.58363
O         15.88449        35.98928        -2.21381
O          8.37886        23.86992        -1.46593
O         13.18300        18.94768         2.13096
O          9.93759        13.24855         2.48331
O         19.78810        13.09411         1.80319
O          6.55732        29.34209        -1.90870
O          5.18300        18.00647        -0.61153
O          5.05251        22.34895         2.42798
O          5.03509         9.48714        -1.40771
O         17.03274        10.16048        -2.32464
H         16.33831         9.52665        -2.60899
O          5.95007        32.33267        -2.20683
H          5.98490        31.46307        -2.66543
O         16.79201        29.48351         1.18135
H         17.20828        30.15201         1.76577
O         14.66201        20.92524        -1.67445
H         13.82069        21.33492        -1.97230
O          6.48034        36.47716         1.39454
H          7.24263        37.07624         1.54712
O         19.69347         8.80817         1.07525
H         19.44695         7.96977         1.53576
O         16.53980        29.12713        -2.44200
H         15.80945        28.76138        -2.98289
O          2.47792        34.39426         1.64350
H          1.69835        34.94781         1.86435
O         19.58018        36.30590        -0.40388
H         19.34778        36.76698        -1.23618
O         11.01149        24.44582        -2.19103
H         10.09255        24.12417        -2.36561
O         18.48504         6.47033         1.28924
H         18.47955         5.56330         1.66200
O         19.73792         9.87891        -2.42729
H         18.85418        10.21285        -2.72434
O         11.07199         2.19017        -0.58738
H         11.08735         2.29743         0.38560
O         17.70058        35.56302         2.64200
H         18.03395        35.30395         3.52669
O          8.77552        27.91750         1.42390
H          9.65595        28.31727         1.59283
O          0.92522        19.11939        -1.04362
H          0.95242        18.16686        -1.27777
O         11.01634        20.21762        -1.16481
H         10.11114        19.89786        -1.37091
O         18.98115        29.42855        -1.78376
H         19.86404        29.02490        -1.91521
O          2.52278        27.33707         2.32038
H          1.71307        26.92971         2.69611
O         12.36158        23.11295         1.83883
H         13.08795        22.61062         2.26660
O         13.68380        31.77343        -3.07804
H         13.02858        32.40595        -3.44614
O         18.32263        33.90850        -1.72560
H         17.93999        34.30910        -2.53376
O          3.41468        20.40884         2.87002
H          3.65689        21.26767         3.29432
O          5.90077        19.04980         2.85543
H          5.03815        19.50103         3.06148
O          8.70790        19.38580         2.86431
H          7.77618        19.38009         3.19379
O          6.43189        33.12001         1.34549
H          6.37374        33.97337         1.82833
O         12.21637        29.49872        -2.86135
H         12.85832        30.13922        -3.26329
O         16.84866        33.30013         1.57190
H         16.79467        34.17499         2.03527
O         18.65001         7.48331        -2.23522
H         19.14263         8.24475        -2.63509
O          4.75834        12.59853         2.50495
H          5.53932        13.04079         2.90238
H          1.18990         2.46622        -0.88533
H         -0.96752         3.71304        -0.83827
H         -1.00823         6.15956        -0.58749
H         -1.00845         8.05453        -0.28930
H         -1.00386        10.45661         0.03302
H         -0.99561        12.35942         0.21032
H         -0.95792        14.77194         0.51176
H         -0.80746        16.56673         1.44682
H         -0.85052        19.02152         1.40507
H         -0.89989        20.87227         0.15127
H         -0.95959        23.32613         0.26208
H         -0.99119        25.21526         0.59672
H         -0.99519        27.61530         0.32841
H         -0.98632        29.50037         0.06056
H         -0.95656        31.90509        -0.20620
H         -0.90728        33.80450        -0.51684
H         -0.81611        36.23473        -0.74908
H          0.46828        38.33110        -1.02134
H          3.65146         2.47356        -0.83288
H          2.64435        39.52944        -1.10101
H          6.11192         2.47333        -0.87380
H          5.09237        39.48432        -1.08514
H          8.58629         2.48043        -1.01946
H          7.52244        39.48093        -1.08196
H         11.01060         3.32756        -2.29381
H          9.98697        39.47312        -1.10988
H         13.50704         2.46895        -1.09618
H         12.45876        39.44007        -1.19618
H         15.98382         2.42202        -0.90549
H         14.73932        39.43685        -0.78965
H         18.47589         2.40932        -0.79003
H         16.81458        39.49800         0.55116
H         20.62599         3.63646        -0.83029
H         21.88857         5.77874        -0.85592
H         21.97328         8.20606        -0.70442
H         21.98477        10.24610        -0.90541
H         22.00571        12.33382         0.32926
H         22.01139        14.32106         0.69485
H         21.98963        16.72748         0.38868
H         21.98237        18.61256         0.33622
H         21.96206        21.02694         0.24545
H         21.93390        22.91700         0.38026
H         21.91490        25.34501         0.34994
H         21.78293        27.24161         0.81322
H         21.62327        29.62844         1.23992
H         21.37961        31.57244         1.64489
H         21.06263        33.93994         2.13319
H         20.66557        35.70267         3.04514
H         20.72649        38.16022         2.99464
H         18.90471        39.45902         1.88331
