         277
 CSIRO Nanostructure Databank - Neutral Graphene Oxide Data Set
C         30.16035        31.66654        -0.62434
C         30.18335        32.85739        -0.31713
C         30.12545        36.08593         0.41964
C         30.09443        37.31675         0.40215
C         30.06769        40.77920         0.74489
C         30.10809        42.00023         0.94352
C         32.55745        28.87994        -0.70122
C         31.47239        29.46172        -0.69144
C         32.63214        31.67099        -1.12043
C         31.01762        30.70128        -1.31095
C         32.59394        33.11117        -0.67674
C         31.33282        33.72979        -0.04491
C         32.51919        36.03493         0.14186
C         31.27446        35.17417         0.31507
C         32.48278        37.51599         0.41264
C         31.15817        38.32737         0.37670
C         32.37886        40.47785         1.20711
C         31.15787        39.81110         0.52422
C         32.56895        42.01404         1.02522
C         31.28068        42.84715         0.54001
C         32.69493        44.76240         0.92095
C         31.58208        44.23410         1.02305
C         35.30419        27.19627         0.13262
C         35.13135        28.57835        -0.38124
C         33.93468        29.33317        -0.85088
C         35.11188        31.58185        -0.39559
C         33.99593        30.89631        -1.21443
C         35.20409        33.09340        -0.46172
C         33.89210        33.87563        -0.44791
C         35.03517        35.86698         0.81623
C         33.84762        35.28927         0.07815
C         35.03562        37.36065         1.09679
C         33.71222        38.15685         0.99018
C         34.99885        40.32322         0.63763
C         33.71919        39.66002         1.15519
C         35.08157        41.81967         0.45525
C         33.92667        42.67489         0.95262
C         35.31466        44.86068         0.50989
C         34.05094        44.20696         0.92111
C         35.51213        46.21985        -0.00608
C         37.69312        27.01563        -0.39587
C         36.36045        26.56371         0.04171
C         37.71927        28.53700        -0.15776
C         36.42833        29.30747        -0.06610
C         37.68865        31.52489         0.19523
C         36.35473        30.81832        -0.01367
C         37.71796        33.02194         0.25058
C         36.44852        33.79472        -0.00633
C         37.64261        35.85956         1.00286
C         36.34572        35.12660         0.71264
C         37.64199        37.36159         1.15618
C         36.33386        38.12650         1.12882
C         37.58020        40.36986         0.56632
C         36.28494        39.47370         0.38008
C         37.59423        41.60512        -0.39675
C         36.35521        42.50102        -0.06172
C         37.79344        44.66554        -0.29359
C         36.44810        44.00253        -0.06000
C         37.80958        46.12002        -0.72314
C         36.44281        46.67097        -0.68459
C         40.40543        24.34338        -0.05689
C         39.30869        24.89810        -0.16385
C         40.30855        27.06970        -0.64271
C         38.97901        26.27418        -0.56603
C         40.27123        28.57676        -0.62959
C         38.95465        29.32228        -0.51802
C         40.25147        31.55927        -0.22324
C         38.92969        30.81499        -0.30884
C         40.28825        33.02939         0.16460
C         39.00635        33.80266         0.10258
C         40.18610        35.85581         1.12303
C         38.93928        35.30893         0.41342
C         40.21764        37.36895         1.09558
C         38.91610        38.23002         1.19215
C         40.13913        40.22072         0.08684
C         38.84419        39.51369         0.38027
C         40.12261        41.70774        -0.12926
C         38.93745        42.35228        -0.37284
C         40.26344        44.52857        -0.84718
C         38.88794        43.78968        -0.89981
C         40.28490        45.98867        -1.19508
C         39.00796        46.84306        -1.29507
C         40.27511        47.78764        -3.12072
C         39.16850        47.41266        -2.70900
C         43.04307        24.42596        -0.43938
C         41.74851        24.91361         0.03938
C         42.82296        27.15810        -0.92265
C         41.64222        26.41458        -0.30167
C         42.85622        28.62240        -0.56546
C         41.55060        29.30922        -0.28757
C         42.79724        31.42345         0.28347
C         41.54180        30.81387        -0.29407
C         42.75236        32.75900         0.97653
C         41.38138        33.49317         1.14378
C         42.78199        35.77621         1.39753
C         41.48620        35.02956         1.25328
C         42.84401        37.19457         0.77569
C         41.50659        38.00585         0.63753
C         42.70128        40.28144         0.60212
C         41.46884        39.47721         0.27294
C         42.74779        41.72928         0.17555
C         41.45493        42.43216        -0.16183
C         42.69981        44.72478        -0.07660
C         41.36217        43.94907         0.05412
C         42.78720        46.09928        -0.72851
C         41.56139        46.78345        -1.27060
C         42.95218        47.65635        -3.09494
C         41.61289        47.73468        -2.52203
C         44.04506        25.08105        -0.76094
C         45.36621        27.27661        -1.48191
C         44.12142        26.45697        -1.27991
C         45.36124        28.79910        -1.29850
C         44.06667        29.47877        -0.88954
C         45.33812        31.65480        -0.12967
C         44.05998        30.88461        -0.35472
C         45.32106        32.93997         0.65495
C         44.06860        33.45641         1.41386
C         45.37339        35.81262         1.19423
C         44.09870        35.02560         1.38610
C         45.34254        37.34587         1.15702
C         44.02820        38.06806         1.21807
C         45.28169        40.31869         1.12586
C         43.95236        39.57743         1.06641
C         45.28598        41.80355         0.89464
C         43.96797        42.52884         0.62336
C         45.30330        44.73541         0.14868
C         43.98488        43.99629         0.31117
C         45.32172        46.11508        -0.58014
C         44.11125        46.56553        -1.23711
C         43.95855        47.37023        -2.36457
C         47.76819        27.45434        -1.46587
C         46.74139        26.79165        -1.26520
C         48.02296        28.88271        -1.34610
C         46.65882        29.61403        -1.16365
C         47.90744        31.49285         0.15250
C         46.64702        30.98409        -0.52726
C         47.91121        32.83983         0.83034
C         46.62656        33.63005         1.14061
C         47.92283        35.83716         0.76158
C         46.58478        35.07832         0.58364
C         47.89079        37.33850         0.77699
C         46.58040        38.08819         0.74429
C         47.87589        40.26430         1.26560
C         46.56748        39.58479         0.81828
C         47.90041        41.86757         1.08166
C         46.59016        42.45480         0.47743
C         47.92751        44.67202         0.11443
C         46.59082        43.91969         0.13183
C         47.71593        45.94345        -0.57738
C         46.67377        46.38139        -1.08369
C         50.62014        28.89235        -0.73465
C         49.30822        29.55371        -0.98498
C         50.54371        31.48499         0.32074
C         49.24925        30.81194        -0.11594
C         50.54636        32.88102         0.94675
C         49.21003        33.58237         1.16620
C         50.43382        35.94328         1.27790
C         49.16236        35.10802         1.24706
C         50.36227        37.41638         1.01429
C         49.14096        38.10162         0.97983
C         50.34063        40.16405         0.59149
C         49.11174        39.51304         0.80052
C         50.39008        41.55601         0.11252
C         49.12414        42.38362         0.28568
C         50.50623        44.28949        -0.36796
C         49.20497        43.91456         0.20626
C         51.65043        29.64225        -0.72481
C         52.83429        31.93122        -0.27957
C         51.85370        30.94336        -0.27394
C         52.78462        33.19211        -0.09233
C         51.83468        33.72639         0.90479
C         52.76139        36.16714         0.66216
C         51.78795        35.19767         1.16118
C         52.75400        37.41800         0.71007
C         51.54605        38.18152         0.80164
C         54.09321        41.01396        -0.11894
C         54.97255        40.37578        -0.93518
C         52.89862        41.50378        -0.32167
C         51.74221        42.17373        -0.18656
C         51.49921        43.56478        -0.46982
O         42.36634        41.98118        -1.21121
O         34.77589        28.60451        -1.77810
O         48.10739        39.97542         2.60567
O         41.00928        31.41408        -1.48070
O         43.74609        43.49843         1.67790
O         39.35910        39.48123        -0.94742
O         48.70367        44.65161         1.32677
O         34.59880        40.94478        -0.62624
O         43.78953        30.60903        -1.76285
O         37.26931        41.17163        -1.78904
O         45.36273        41.24307         2.23184
O         32.47161        32.71904        -2.08798
O         35.49414        35.02268         1.90020
O         48.18480        36.56821        -0.47279
O         32.58532        36.99378        -0.95009
O         39.90006        33.71574        -1.06032
O         43.11367        26.75867        -2.27924
O         37.78136        32.20935         1.46708
O         33.60062        38.79111         2.29696
O         37.68483        36.44176         2.30527
O         42.05882        35.40812         2.56821
O         40.13572        36.62798         2.34307
O         38.70784        30.23761        -1.62649
O         33.28497        42.40429         2.23510
O         49.89886        30.50627         1.16218
O         46.70024        30.82389        -1.96704
O         42.99987        40.13590         2.02256
O         36.12206        33.69108        -1.42181
O         42.72613        31.48003         1.71229
O         55.90745        39.84458        -1.33049
O         35.99558        43.29171        -1.23739
O         40.58054        44.92472        -2.19364
O         42.35043        28.78101         0.80551
O         49.06230        34.28729         2.42838
O         45.31770        45.98073         0.86986
O         41.56761        48.21766        -1.15738
O         44.93770        35.42483         2.51300
O         45.18440        32.95633        -0.77920
O         31.50059        34.15914         1.32506
O         51.26803        35.60922         2.42777
O         37.13794        28.85250         1.13519
O         35.64735        37.82720         2.34535
O         47.74752        31.59091         1.59653
O         35.30739        31.15091         0.96900
O         38.12434        26.54957        -1.68679
O         44.75521        37.79291         2.42782
O         34.06074        35.01169        -1.33605
O         38.19291        45.67153         0.64375
O         35.01255        44.67885         1.90253
O         42.66573        45.95064         0.72118
O         46.57971        42.87284        -0.90899
O         51.48767        32.92844         2.05321
O         41.51124        38.46529        -0.76213
O         41.83429        25.93019         1.05792
O         49.37407        41.72769        -0.97288
O         48.84045        29.57127        -2.33180
O         45.26234        28.16214        -2.60868
O         46.49042        38.91402        -0.47444
O         40.40265        27.82771        -1.87313
O         31.24326        39.23450        -0.77121
O         40.82953        33.05234         2.39550
H         41.45638        33.30359         3.11018
O         39.18947        47.94604        -0.42410
H         38.32243        48.37196        -0.25757
O         40.89722        44.09579         1.40499
H         41.27468        44.92378         1.78125
O         38.42015        41.15434        -2.66048
H         38.84196        40.27453        -2.46311
O         37.55075        40.92905         1.88229
H         37.91812        40.26071         2.51770
O         46.63751        33.71931         2.56522
H         46.98891        32.87786         2.93160
O         38.93869        35.98071        -0.88061
H         39.44703        35.43395        -1.52588
O         43.23736        36.78491        -0.56840
H         42.85393        37.41994        -1.22262
O         47.99538        42.40939         2.38639
H         48.01037        41.61676         3.00459
O         46.34531        34.99998        -0.82070
H         46.72689        35.79814        -1.25571
O         30.79806        30.58018        -2.65251
H         30.50998        31.43846        -3.02519
O         34.44403        30.98317        -2.55754
H         33.76887        30.60730        -3.15883
O         31.34771        42.85124        -0.86362
H         30.53304        43.24520        -1.23737
O         38.94469        38.76801         2.54405
H         38.91055        37.99591         3.16036
O         31.91315        40.37552         2.56890
H         32.53108        40.86949         3.15337
O         36.22780        38.99639        -0.96914
H         35.87337        39.71643        -1.54655
O         38.49080        43.74527        -2.27443
H         38.75129        42.88694        -2.68767
O         51.50478        39.49388         0.57449
O         44.15841        33.07771         2.78955
H         44.74994        33.72232         3.24817
