         656
 CSIRO Nanostructure Databank - Neutral Graphene Oxide Data Set
C          5.98448        31.93135        -0.48272
C          5.98495        33.25902        -0.21417
C          8.60982        27.70054        -0.91267
C          8.51724        29.08502        -0.53236
C          7.31226        29.76537        -0.67628
C          8.38187        31.78726         0.49558
C          7.10122        31.06560        -0.07270
C          8.36924        33.24668         0.50761
C          7.15450        33.95653         0.29628
C          8.30623        36.05644         0.80986
C          7.14154        35.35134         0.42593
C          8.29650        37.48541         0.89066
C         10.89423        23.42550        -0.31987
C         10.91681        24.83293        -0.36950
C          9.80599        25.55675        -0.80983
C         11.06926        27.70754        -0.64516
C          9.79161        26.97975        -0.82753
C         11.00795        29.10868        -0.15001
C          9.68700        29.75986         0.00306
C         10.90037        31.82540         0.64974
C          9.66527        31.08589         0.39513
C         10.85126        33.23464         0.84023
C          9.57997        33.94199         0.75318
C         10.71235        36.01219         1.50232
C          9.52277        35.33123         0.97369
C         10.64327        37.52255         1.69288
C          9.43353        38.22966         1.21468
C         10.66194        40.38130         1.28140
C          9.49981        39.62497         1.00859
C         10.74118        41.71876         0.90980
C         13.27010        19.13331        -0.27200
C         13.24531        20.51563        -0.10222
C         12.04670        21.26663        -0.08444
C         13.27328        23.38784         0.34286
C         12.03632        22.67498         0.02689
C         13.36324        24.74315         0.27673
C         12.11328        25.58725         0.18380
C         13.52864        27.67821         0.01421
C         12.35140        26.89938        -0.57231
C         13.47177        28.97645         0.43634
C         12.12996        29.63034         0.71838
C         13.34411        31.83438         0.95410
C         12.13506        31.13908         0.73175
C         13.29519        33.25268         1.04899
C         12.06701        33.95598         1.03753
C         13.17642        36.13908         1.56404
C         12.03440        35.38161         1.33772
C         13.09701        37.56088         1.88453
C         11.91231        38.25491         1.80662
C         13.10247        40.46806         1.89607
C         11.79084        39.74748         2.07691
C         13.13808        41.77719         1.53289
C         11.93561        42.49991         1.09136
C         13.14654        44.73802         1.11177
C         11.95186        43.85402         0.84443
C         13.27435        45.90435         0.15383
C         15.61976        14.72960        -0.58645
C         15.68186        16.23831        -0.48112
C         14.49975        16.98192        -0.49577
C         15.74456        19.05556        -0.12390
C         14.49327        18.38920        -0.32278
C         15.76736        20.46936         0.20223
C         14.54363        21.29564        -0.11010
C         15.73364        23.28711         0.90267
C         14.43403        22.53724         0.78467
C         15.84259        24.64543         0.84131
C         14.69067        25.42198         0.30525
C         16.10388        27.62626         0.43563
C         14.80133        26.90826         0.07770
C         15.91191        29.04169         0.94830
C         14.68310        29.70826         0.83829
C         15.80689        31.85294         1.34896
C         14.60825        31.12438         1.06260
C         15.80070        33.28142         1.39516
C         14.55750        34.00061         1.07896
C         15.73808        36.15701         1.77884
C         14.50151        35.51650         1.32853
C         15.65585        37.55650         2.25556
C         14.33563        38.26444         2.32773
C         15.63080        40.47652         2.15136
C         14.31306        39.79585         2.50403
C         15.67253        41.80163         1.82025
C         14.43135        42.47957         1.37911
C         15.72421        44.74982         1.23584
C         14.43872        43.93891         1.07020
C         15.76075        45.85008         0.20337
C         14.48946        46.42648        -0.23961
C         15.76277        48.15431        -1.46489
C         14.55627        47.65125        -0.99859
C         15.83861        49.45448        -2.02294
C         18.19008        10.77484        -2.19042
C         18.18325        12.07203        -1.65004
C         16.96091        12.75990        -1.35606
C         18.17418        14.75821        -0.66594
C         16.94804        14.06704        -0.89378
C         18.18086        16.15449        -0.33846
C         16.92623        16.89399        -0.29714
C         18.20961        19.00198         0.05069
C         16.93225        18.29927        -0.11191
C         18.20627        20.43575         0.50419
C         16.90018        21.08085         0.68398
C         18.18760        23.14327         1.61932
C         16.89969        22.45320         1.24763
C         18.19030        24.62445         1.63433
C         17.07417        25.32581         1.23834
C         18.17320        27.54167         1.95059
C         16.99676        26.80796         1.38049
C         18.25490        29.00521         1.73432
C         17.08615        29.71948         1.42761
C         18.19492        31.89067         1.94350
C         17.03671        31.16206         1.58629
C         18.20507        33.30855         1.89935
C         16.97747        34.00691         1.65613
C         18.19200        36.15386         1.98377
C         16.94439        35.45421         1.79280
C         18.15740        37.62635         1.97829
C         16.89662        38.36044         2.23809
C         18.13049        40.50456         2.50971
C         16.87376        39.73200         2.27373
C         18.21702        41.92685         2.11478
C         16.90879        42.66493         2.04302
C         18.24971        44.62653         1.04143
C         16.95769        43.82977         1.05432
C         18.22822        45.81925         0.35379
C         16.97662        46.35167        -0.18681
C         18.29199        47.92718        -1.75131
C         16.97062        47.23019        -1.42037
C         18.30391        49.30245        -2.37298
C         17.04121        50.08019        -2.39981
C         18.32780        52.14813        -2.82248
C         17.09667        51.45842        -2.65645
C         18.36729        53.54099        -2.97298
C         20.61374         6.75086        -3.73995
C         20.61656         8.10496        -3.34096
C         19.41257         8.82322        -3.10704
C         20.64039        10.81286        -2.32456
C         19.40801        10.13268        -2.54524
C         20.66380        12.10533        -1.74163
C         19.42536        12.74028        -1.39966
C         20.65767        14.70553        -0.63055
C         19.42280        14.06872        -0.88334
C         20.71699        16.09302        -0.05582
C         19.40076        16.82216        -0.13770
C         20.65159        18.89127         0.31284
C         19.44794        18.21135         0.14839
C         20.69303        20.18546         1.02677
C         19.42491        20.98411         1.18747
C         20.67876        23.10811         1.61520
C         19.49582        22.44955         1.46101
C         20.76337        24.51518         2.20278
C         19.41527        25.27478         2.18370
C         20.75502        27.46416         2.28980
C         19.41680        26.76830         2.34417
C         20.73612        28.96532         2.31757
C         19.36625        29.66032         2.52229
C         20.73474        31.91647         2.20938
C         19.42222        31.17830         2.36421
C         20.68776        33.37418         1.95595
C         19.44393        34.04141         1.99808
C         20.68511        36.20651         2.09060
C         19.41885        35.48094         2.01494
C         20.69924        37.57940         2.24787
C         19.45344        38.34980         2.16407
C         20.68493        40.52333         2.75604
C         19.40754        39.74910         2.68376
C         20.68421        41.98425         2.36100
C         19.40792        42.59708         1.92953
C         20.72826        44.54451         1.12966
C         19.49338        43.95447         1.38659
C         20.80092        46.01028         0.73487
C         19.49754        46.55905         0.13170
C         20.85337        47.98329        -1.55916
C         19.53531        47.57980        -0.96367
C         20.85180        49.23559        -2.40619
C         19.59068        50.03705        -2.49863
C         20.82324        52.12254        -3.03617
C         19.57132        51.37934        -2.78294
C         20.82016        53.60039        -3.02106
C         19.58870        54.28669        -3.07001
C         20.78900        56.41171        -3.43879
C         19.59994        55.70642        -3.23210
C         20.81673        57.84683        -3.52172
C         23.06490         4.03807        -4.55400
C         21.85501         4.69460        -4.37838
C         23.06293         6.68000        -3.58390
C         21.82543         6.04116        -3.91083
C         23.05844         8.02805        -3.12434
C         21.87523         8.74704        -3.07680
C         23.16971        10.79543        -2.35596
C         21.89428        10.24439        -2.93583
C         23.18917        12.28310        -2.11271
C         21.89561        12.80069        -1.52821
C         23.13958        14.79456        -0.70450
C         21.88634        14.07473        -0.93956
C         23.15351        16.15956        -0.59253
C         21.82857        16.88747        -0.76981
C         23.17363        19.03756        -0.07306
C         21.87103        18.33200        -0.28205
C         23.22239        20.32561         0.63411
C         22.00243        20.89812         1.20767
C         23.20520        23.17017         1.20500
C         21.98611        22.39330         1.52977
C         23.13570        24.59660         1.30251
C         21.95284        25.32718         1.65393
C         23.12698        27.55155         1.50859
C         21.94804        26.73346         1.75725
C         23.12998        28.93310         1.53052
C         21.82671        29.69735         1.54708
C         23.16385        31.83604         1.76369
C         21.97285        31.15593         1.93615
C         23.16215        33.31831         1.67485
C         21.91143        34.08584         1.87920
C         23.18872        36.21715         2.05115
C         21.94641        35.48841         1.97991
C         23.21366        37.59905         2.21165
C         21.94761        38.38537         2.03621
C         23.23483        40.48351         2.71587
C         21.95803        39.72590         2.74889
C         23.20282        41.97723         2.54223
C         21.96832        42.63686         2.04801
C         23.26511        44.54428         1.14568
C         21.98871        43.88831         1.44970
C         23.28738        45.77155         0.37594
C         22.06529        46.36949        -0.05206
C         23.35424        48.06060        -1.28676
C         22.11204        47.45833        -0.94149
C         23.34227        49.48871        -1.80983
C         22.20009        49.87144        -2.77380
C         23.30672        52.24650        -2.48060
C         22.12358        51.40109        -2.92775
C         23.29504        53.60739        -3.13503
C         22.05622        54.29501        -3.20128
C         23.26829        56.38442        -3.67151
C         22.04817        55.69994        -3.46790
C         23.25408        57.81818        -4.12404
C         21.99610        58.55451        -3.71576
C         23.26921        60.65129        -3.72908
C         22.04747        59.97148        -3.67178
C         24.28457         4.68189        -4.29183
C         25.54449         6.70692        -3.61501
C         24.31060         6.00388        -3.80508
C         25.58968         8.00119        -3.08759
C         24.31929         8.57085        -2.49701
C         25.59584        10.70206        -2.07566
C         24.33395        10.07086        -2.35634
C         25.59197        12.01798        -1.50483
C         24.42004        12.73643        -1.37268
C         25.64737        14.78883        -0.60939
C         24.38203        13.97266        -0.49701
C         25.64603        16.16223        -0.50389
C         24.39491        16.89883        -0.42770
C         25.65897        18.99928        -0.05480
C         24.42267        18.26975        -0.20685
C         25.66272        20.34630         0.32766
C         24.42842        21.03570         0.67634
C         25.62598        23.20022         0.51775
C         24.39880        22.46328         0.90597
C         25.59710        24.69552         0.59499
C         24.40519        25.34243         1.21865
C         25.60646        27.56609         0.73311
C         24.41651        26.83623         1.33953
C         25.65787        29.00016         1.20084
C         24.34931        29.73431         1.05342
C         25.65455        31.81799         1.68720
C         24.40737        31.15997         1.54075
C         25.71756        33.25676         1.93610
C         24.47738        34.03164         1.68828
C         25.64369        36.09904         2.65669
C         24.52587        35.54632         1.78147
C         25.68565        37.59092         2.64244
C         24.44215        38.33730         2.32514
C         25.71725        40.43588         2.31915
C         24.46842        39.72676         2.39758
C         25.74076        41.82236         2.12854
C         24.50824        42.64555         2.21438
C         25.73635        44.57542         1.23936
C         24.47593        43.93704         1.49427
C         25.75844        45.82872         0.56340
C         24.53477        46.37796         0.04024
C         25.79461        48.36048        -0.84551
C         24.55785        47.59019        -0.72322
C         25.86561        49.57783        -1.49182
C         24.70027        49.97704        -2.40574
C         25.65228        52.16989        -3.19116
C         24.58617        51.47830        -2.68917
C         25.74972        53.60075        -3.23114
C         24.50802        54.30762        -3.30594
C         25.76647        56.41495        -3.58628
C         24.49633        55.71192        -3.55801
C         25.73128        57.84944        -3.67889
C         24.53938        58.55265        -3.80306
C         24.49090        59.97020        -3.75734
C         26.78961         8.71539        -2.92141
C         28.06164        10.69840        -2.16438
C         26.82520        10.02152        -2.35536
C         28.13289        11.98167        -1.59054
C         26.88901        12.58834        -1.05852
C         28.16039        14.81048        -0.87128
C         26.91759        14.05129        -0.66361
C         28.13701        16.20526        -0.79005
C         26.89036        16.91578        -0.53508
C         28.08521        19.10635        -0.71093
C         26.88067        18.28694        -0.35103
C         28.19212        20.41228         0.01575
C         26.97450        21.01123         0.68995
C         28.11565        23.21055         0.45070
C         26.94058        22.51360         0.51183
C         28.12482        24.71340         0.22002
C         26.87690        25.44031         0.66979
C         28.12664        27.63792         0.69502
C         26.88625        26.77955         0.87190
C         28.09883        28.79440         1.72828
C         26.83543        29.63543         1.54153
C         28.09522        31.71081         2.21237
C         26.85110        31.05360         1.76579
C         28.15211        33.19031         2.26766
C         26.89874        33.90610         2.24234
C         28.20896        36.08074         2.55753
C         26.93267        35.29666         2.85103
C         28.21768        37.53235         2.50121
C         26.97570        38.29254         2.51174
C         28.15307        40.36827         1.85614
C         26.94048        39.65994         2.27367
C         28.17673        41.83399         1.88991
C         26.97943        42.52697         1.92132
C         28.19823        44.63520         1.44004
C         26.96275        43.94474         1.60113
C         28.15836        45.99388         0.99302
C         26.99015        46.53049         0.45623
C         28.12711        48.75281         0.04833
C         27.10827        47.73902        -0.43581
C         28.10076        50.02729        -0.42202
C         27.08950        50.36573        -1.41663
C         28.37453        52.44229        -1.98530
C         27.44327        51.37034        -2.29616
C         28.20483        53.73361        -2.61758
C         27.00136        54.29812        -3.12128
C         26.95270        55.71998        -3.35324
C         29.32986        12.71042        -1.50896
C         30.57089        14.83303        -1.30011
C         29.36960        14.10019        -1.18680
C         30.58721        16.23242        -1.14617
C         29.36439        16.94151        -0.90422
C         30.59205        19.06270        -0.77866
C         29.37994        18.34468        -0.74209
C         30.64524        20.46150        -0.39712
C         29.39200        21.09709         0.00523
C         30.60494        23.17430         0.46198
C         29.39624        22.50794         0.35658
C         30.60234        24.57886         0.92788
C         29.32919        25.37477         0.84490
C         30.60155        27.48084         1.13286
C         29.41123        26.84421         0.87245
C         30.59895        28.92259         1.40846
C         29.40728        29.56283         1.66789
C         30.69135        31.68629         2.22921
C         29.39838        30.92897         2.21944
C         30.65933        33.18708         2.25360
C         29.35008        33.89274         2.31003
C         30.69596        36.00292         2.54448
C         29.37956        35.34047         2.42908
C         30.72040        37.56801         2.52781
C         29.42972        38.22093         2.33104
C         30.71750        40.37366         1.75363
C         29.45326        39.60242         1.85188
C         30.67911        41.73947         1.57687
C         29.49044        42.54577         2.04467
C         30.68527        44.62579         1.27607
C         29.45838        43.96634         1.54735
C         30.69494        46.10447         1.27039
C         29.38528        46.81508         1.13514
C         30.63625        48.90498         0.26367
C         29.36411        48.24733         0.70472
C         30.55692        50.23241        -0.15414
C         29.24475        50.98434        -0.09776
C         29.27276        52.22484        -0.95794
C         31.78346        16.99359        -1.31145
C         33.00975        19.15784        -1.48260
C         31.78603        18.36278        -1.13733
C         33.07938        20.53605        -0.85000
C         31.88247        21.13602        -0.27055
C         33.01299        23.17820         0.69912
C         31.86960        22.49151         0.27956
C         33.05678        24.60419         0.92414
C         31.85290        25.33885         0.95901
C         33.11063        27.41993         1.12284
C         31.86761        26.74418         1.11560
C         33.17531        28.85311         1.58562
C         31.87343        29.63143         1.52634
C         33.23596        31.70326         2.00831
C         31.91822        30.97057         1.79681
C         33.14490        33.18637         1.66158
C         31.81310        33.91301         1.58143
C         33.07456        36.05595         1.86167
C         31.91154        35.35087         2.04723
C         33.14135        37.49410         2.03125
C         31.96937        38.24264         2.13307
C         33.15462        40.31312         1.46929
C         31.96861        39.64630         1.76749
C         33.14250        41.65232         0.88740
C         31.83296        42.44507         1.01890
C         33.08048        44.59037         0.61192
C         31.88664        43.92158         1.04725
C         33.09623        45.95317         0.39462
C         31.97864        46.82158         0.76324
C         31.83362        48.16491         0.20992
C         34.29632        21.15254        -1.08494
C         35.71311        23.23242        -0.87466
C         34.78057        22.32367        -0.42002
C         35.99314        24.45240        -0.16301
C         34.28035        25.31134         0.97894
C         35.61430        27.41642         0.68864
C         34.33968        26.72371         0.92637
C         35.69381        28.89465         1.08237
C         34.31704        29.58686         0.88844
C         35.49500        31.75915         0.90360
C         34.38716        31.04656         1.27984
C         35.52752        33.21010         1.01766
C         34.27262        33.88178         1.34235
C         35.55674        36.01154         1.33797
C         34.19575        35.37524         1.10695
C         35.69034        37.44178         1.73083
C         34.43715        38.20297         2.01691
C         35.69166        40.34530         1.25924
C         34.45022        39.69945         1.76396
C         35.60632        41.75508         0.90855
C         34.41302        42.39430         0.74969
C         34.31000        43.79597         0.17965
C         36.68292        25.54462        -0.62314
C         38.02969        27.56203        -0.02521
C         36.69541        26.83199         0.04635
C         37.90023        29.04771        -0.23602
C         36.71879        29.69448         0.28329
C         37.71102        31.87237        -0.26255
C         36.62384        31.08173         0.26092
C         37.78572        33.22566         0.02048
C         36.65572        33.89729         0.61127
C         38.07524        35.95139         0.98368
C         36.69707        35.40171         0.55075
C         38.02931        37.46682         0.92013
C         36.91845        38.17228         1.28680
C         36.84400        39.61631         1.11353
C         38.88364        29.75328        -0.86335
C         40.00596        31.98454        -1.26963
C         38.71562        31.21613        -1.17441
C         40.09856        33.27987        -0.91474
C         38.99439        34.00013        -0.28383
C         39.12934        35.29746         0.11870
O         25.33667        36.80368         3.88533
O         23.92911        42.72063         3.57310
O         28.69181        39.79548         0.59102
O         22.19925        21.39291         2.56933
O         22.39712        19.20760        -1.36044
O         23.84700        33.67742         0.39934
O          7.40378        31.14539         1.35611
O         18.59875        40.05207         3.85944
O         35.87923        36.34781         2.71433
O         20.81148        47.89649        -3.00678
O         19.90045        20.13482         2.27183
O         21.61067        51.69856        -4.25395
O         14.50089        43.00406        -0.02953
O         19.18493        25.91403         3.49610
O         32.25971        41.85060        -0.26513
O         16.98092        27.21369         2.77412
O         14.65792        34.96048        -0.02955
O         26.98875        12.96182         0.35864
O         28.61953        31.04246         3.44902
O         21.14096        28.23983         3.49969
O         31.60037        46.70306         2.19878
O         11.29134        28.84605        -1.56405
O         35.45965        24.57789         1.14320
O         29.73363        24.77488         2.11468
O         34.21844        22.50058         0.86390
O         20.65204        41.53888         3.77470
O         29.23214        47.91562         2.12100
O         30.84871        36.78971         3.75311
O         24.76577        26.01380         2.48562
O         26.81336        51.46055        -3.53638
O         18.36986        48.06817        -3.19324
O         17.32219        22.53410         2.65923
O         22.68936        39.89875         3.97641
O         14.89951        37.63802         3.54399
O         25.37340        24.05426        -0.69861
O         30.96447        32.44807         3.47306
O         15.02033        25.98766        -1.03701
O         10.44292        36.60690         2.81910
O         18.86004        38.23024         0.81019
O         20.10398        31.71201         3.53930
O         34.57365        39.15462         3.12052
O         19.37116        48.00947         0.43117
O         18.41854        20.11693        -0.91718
O         27.99916        28.16202        -0.61030
O         11.41958        39.88285         3.47905
H         12.25929        39.87534         4.00183
O         12.98363        45.29687         2.44711
H         13.86483        45.66741         2.70735
O         22.51535        49.35796        -4.08484
H         21.94687        49.84946        -4.72312
O         24.28566         8.07250        -1.11234
H         24.35525         7.09486        -1.15143
O         29.68212        42.64511         3.51410
H         29.00523        43.26400         3.86414
O         38.89763        26.99138        -1.00641
H         38.63299        27.32342        -1.88829
O         23.20319        57.76097        -5.59589
H         23.19212        58.68702        -5.91903
O         11.76786        29.21298         2.07142
H         12.45887        29.53490         2.68757
O         14.16872        40.03265         3.94388
H         14.62612        39.27830         4.39253
O         38.38096        35.54802         2.33688
H         37.63430        35.84948         2.91053
O         33.07337        19.28836        -2.92232
H         32.24240        19.70841        -3.22583
O         14.62181        14.32756        -1.53194
H         14.89200        14.64723        -2.41691
O         28.21532        24.89908        -1.21829
H         27.32185        24.71697        -1.58776
O         28.02344        28.21569         3.05194
H         28.10852        28.95503         3.69676
O         20.97948        46.70226         2.00573
H         20.60480        47.60641         1.89207
O         27.68258        47.17908        -1.67870
H         27.42493        47.77233        -2.41823
O         33.85399        35.54056        -0.32037
H         33.62431        36.48226        -0.47506
O         21.11844        24.27626         3.58162
H         20.61414        24.92020         4.13428
O         21.89489        38.79819         0.61899
H         21.71442        38.00135         0.07508
O         16.73032        43.18721         3.40226
H         16.95510        42.47315         4.03831
O         16.87111        27.76476        -0.79316
H         16.50402        27.10866        -1.43280
O         23.07094        50.21319        -0.58730
H         23.80771        50.05405         0.03933
O         16.75946        46.25191        -2.48907
H         17.05747        46.68456        -3.32434
O         24.93057        36.00200         0.45101
H         24.47966        35.41008        -0.19643
O         36.53146        35.79612        -0.83661
H         35.67055        35.43022        -1.14520
O         27.83241        19.48182        -2.13055
H         28.53069        20.12093        -2.38962
O         16.94640        43.20740        -0.24931
H         16.73703        43.89009        -0.92350
O         29.06321        51.45047         1.27723
H         29.13955        50.67052         1.86860
O         21.34559        29.74254         0.16248
H         22.14077        29.95387        -0.39281
O         24.06948        29.88083        -0.39881
H         24.47689        29.07795        -0.83618
O         14.11614        22.08278         2.13328
H         14.93647        22.08157         2.67233
O         27.13165        20.75179         2.13078
H         27.91936        21.25024         2.43741
O         11.78697        25.97775         1.54771
H         11.59664        25.16664         2.06449
O         38.12385        31.26365        -2.53331
H         37.26982        30.78371        -2.49236
O         14.74369        21.79006        -1.46254
H         14.87063        21.02001        -2.05524
O         33.50373        28.76648         3.00623
H         32.73815        28.37754         3.47931
O         15.72006        45.41417         2.52125
H         16.04260        44.77704         3.20560
O         27.02758        34.99461         4.27531
H         26.62670        35.75885         4.75485
O         33.54751        31.62878         3.43053
H         32.75846        31.97947         3.91037
O         18.95207        29.43392         3.88817
H         19.59700        28.80624         4.29780
O         24.32253        13.47692         0.88352
H         25.21845        13.10403         1.08046
O         21.11524        16.02071         1.34044
H         20.49112        15.43270         1.81408
O         25.43044        27.64223        -0.72208
H         26.36777        27.87968        -1.03879
O         21.49974        16.90273        -2.17144
H         21.91612        17.70906        -2.55432
O         33.98908        29.53847        -0.52602
H         34.65632        30.07135        -1.00829
O         36.12699        28.98882         2.45560
H         35.33622        28.86773         3.03327
O         21.85625        10.74788        -4.32747
H         22.10199        11.70725        -4.28480
O         25.03884        49.27511        -3.61586
H         24.24090        49.27543        -4.20252
O         35.49913        44.54147         0.43511
H         35.54823        44.72911         1.39471
O         31.45577        33.95093         0.16375
H         32.20118        34.39473        -0.30940
O         23.10053        52.57935        -1.06756
H         23.83255        53.16969        -0.79192
O         12.67121        26.54769        -1.93073
H         12.61524        27.37159        -2.46200
O         23.26848        12.93003        -3.46204
H         24.14264        12.69611        -3.84321
H          5.13288        31.46930        -1.00425
H          5.11398        33.87229        -0.48962
H          7.67236        27.16378        -1.12448
H          6.51185        29.32998        -1.29320
H          6.21084        35.90694         0.23917
H          7.37589        38.01547         0.60293
H          9.99005        22.89721        -0.66037
H          8.87981        25.01674        -1.06213
H          8.63483        40.13179         0.55199
H          9.86966        42.19613         0.43458
H         12.31969        18.58187        -0.34215
H         11.09216        20.74523        -0.25866
H         11.01861        44.34422         0.52430
H         12.35105        46.41636        -0.16101
H         15.27226        14.33887         0.41309
H         13.54445        16.45546        -0.63872
H         13.63261        48.23391        -1.13864
H         14.91618        50.05614        -2.04457
H         17.23701        10.25539        -2.36834
H         16.00443        12.24876        -1.54049
H         16.16117        52.03774        -2.65097
H         17.41560        54.09199        -3.01174
H         19.65701         6.24434        -3.93649
H         18.44958         8.32263        -3.28909
H         18.64439        56.25149        -3.21671
H         19.87889        58.39889        -3.35141
H         23.07295         3.00278        -4.92301
H         20.90883         4.18539        -4.61063
H         23.27182        61.74908        -3.67411
H         21.11606        60.53830        -3.52584
H         25.23179         4.15412        -4.47311
H         26.48018         6.21845        -3.92851
H         26.67459        58.40607        -3.56169
H         25.43052        60.53650        -3.67628
H         27.73753         8.24879        -3.23132
H         28.99023        10.21056        -2.49699
H         29.02797        54.44952        -2.45508
H         27.89346        56.28836        -3.28972
H         30.26367        12.22891        -1.83726
H         31.50619        14.30454        -1.53668
H         31.47139        50.76529        -0.45464
H         29.94531        53.03432        -0.63562
H         32.71231        16.47780        -1.59642
H         33.92471        18.58282        -1.18791
H         33.96739        46.40139        -0.10656
H         32.70167        48.60674        -0.30273
H         34.97714        20.65196        -1.79300
H         36.15523        23.09329        -1.87103
H         36.54028        42.30286         0.70871
H         34.24475        43.67793        -0.93945
H         37.29859        25.45082        -1.53078
H         38.52595        27.39149         0.97073
H         38.92318        38.01447         0.58097
H         37.75217        40.12237         0.75132
H         39.76873        29.22763        -1.25363
H         40.86984        31.47035        -1.71786
H         41.04865        33.82094        -1.04503
H         40.07405        35.83258        -0.06734
