         404
 CSIRO Nanostructure Databank - Neutral Graphene Oxide Data Set
C          1.19492         3.29699         0.38608
C          0.00953         4.00973         0.57617
C          1.20323         6.16293         0.35829
C         -0.03519         5.39919         0.54273
C          1.27018         7.69514         0.42248
C          0.05172         8.46823         0.73839
C          1.05094        10.56829        -0.09544
C         -0.03365         9.79652         0.55727
C          1.11017        12.04566         0.08926
C         -0.07724        12.75992         0.29277
C          1.12598        14.87572         0.36206
C         -0.07685        14.14493         0.41642
C          1.13265        16.32541         0.42148
C         -0.07002        17.06327         0.38861
C          1.13433        19.18418         0.32907
C         -0.06959        18.44747         0.33542
C          1.13569        20.62772         0.18738
C         -0.08051        21.35476         0.06726
C          1.11634        23.47007        -0.12413
C         -0.08971        22.72300        -0.09127
C          1.11956        24.91052        -0.22556
C         -0.08722        25.64782        -0.30031
C          1.12557        27.76105        -0.35605
C         -0.08251        27.02962        -0.34724
C          1.11876        29.22152        -0.30446
C         -0.07437        29.93731        -0.06601
C          1.14190        32.04376        -0.03526
C         -0.06014        31.31834         0.04553
C          1.14179        33.49263         0.29321
C         -0.08181        34.31493         0.25366
C          1.22267        36.40085         0.37239
C         -0.02457        35.66573         0.38585
C          1.24968        37.80804         0.52341
C          3.67640         3.33630        -0.12481
C          2.35416         3.93950        -0.22081
C          3.60514         6.21613        -0.60066
C          2.31458         5.48548        -0.36212
C          3.61970         7.69978        -0.41519
C          2.42825         8.38345        -0.18453
C          3.57455        10.63961        -0.61825
C          2.31311         9.83920        -0.45243
C          3.59107        12.05602        -0.21001
C          2.34936        12.74258         0.03659
C          3.59316        14.87858         0.22185
C          2.35230        14.16458         0.20194
C          3.58713        16.28497         0.44389
C          2.37276        17.02897         0.47319
C          3.58390        19.21478         0.41972
C          2.37106        18.47640         0.44404
C          3.60466        20.62321         0.22474
C          2.35720        21.34365         0.13510
C          3.57316        23.51174         0.02169
C          2.34992        22.77278        -0.00908
C          3.59815        24.90985        -0.14690
C          2.35433        25.61986        -0.25387
C          3.59784        27.74093        -0.53229
C          2.35338        27.04490        -0.35801
C          3.54173        29.18357        -0.81484
C          2.32304        29.94518        -0.46406
C          3.61552        32.10149        -0.44790
C          2.35673        31.35770        -0.30591
C          3.62681        33.49013        -0.33399
C          2.45921        34.24316         0.13881
C          3.60787        36.45264        -0.15609
C          2.43110        35.72077         0.07406
C          3.65143        37.84814         0.10142
C          2.44287        38.50813         0.44451
C          6.05331         3.23516         0.11895
C          4.89031         3.98119        -0.30276
C          6.13899         6.27742        -0.52409
C          4.91521         5.43834        -0.71154
C          6.09106         7.71192        -0.39102
C          4.87234         8.40042        -0.50883
C          6.12636        10.61358        -0.34486
C          4.89180         9.87407        -0.63819
C          6.08625        12.01707        -0.22163
C          4.82330        12.73764        -0.12701
C          6.06844        14.85346         0.19880
C          4.82808        14.15652         0.11249
C          6.11154        16.26436         0.37624
C          4.86054        16.96889         0.66412
C          6.08697        19.23492         0.28566
C          4.85724        18.53884         0.66028
C          6.08954        20.63637         0.16262
C          4.84114        21.32420         0.22520
C          6.13167        23.55191         0.22402
C          4.81485        22.78872         0.32332
C          6.08628        24.96969        -0.16073
C          4.85157        25.63552        -0.25021
C          6.08094        27.78069        -0.58815
C          4.82374        27.05541        -0.51377
C          6.09017        29.17434        -0.67474
C          4.86976        29.94226        -0.90164
C          6.08649        32.09508        -0.69312
C          4.86025        31.40746        -0.68481
C          6.12008        33.53606        -0.69219
C          4.82824        34.25891        -0.71745
C          6.13602        36.53122        -0.74840
C          4.80879        35.76371        -0.68140
C          6.12260        37.90502        -0.10200
C          4.91210        38.54037         0.13201
C          8.61475         3.20190         0.24644
C          7.35996         3.55380        -0.26269
C          8.61488         6.27888        -0.26462
C          7.37911         5.70012        -0.69807
C          8.57999         7.72438        -0.12425
C          7.34427         8.43142        -0.26536
C          8.59078        10.55129        -0.15106
C          7.35820         9.86257        -0.23607
C          8.62092        12.03666        -0.39821
C          7.31976        12.74980        -0.07971
C          8.54561        14.87219         0.40600
C          7.30020        14.12172         0.11451
C          8.56936        16.33744         0.19960
C          7.32411        16.99714         0.23736
C          8.61865        19.21762        -0.12234
C          7.27663        18.44862        -0.00839
C          8.60045        20.67603         0.05668
C          7.35444        21.37420         0.06227
C          8.59614        23.50766        -0.10790
C          7.37335        22.78406         0.03562
C          8.58444        24.92243        -0.29237
C          7.33339        25.65812        -0.33846
C          8.59042        27.77487        -0.58930
C          7.33289        27.05499        -0.48369
C          8.58276        29.15155        -0.68277
C          7.34184        29.91980        -0.31812
C          8.52960        32.08774        -0.67704
C          7.33685        31.38652        -0.68585
C          8.56156        33.51896        -0.52204
C          7.31154        34.22877        -0.56047
C          8.55913        36.38951         0.06760
C          7.28401        35.68105        -0.23022
C          8.60012        37.87704         0.12255
C          7.36949        38.55815         0.11635
C         11.03110         3.39066         0.13253
C          9.78623         4.02359         0.03499
C         11.01234         6.18510         0.30457
C          9.75425         5.48786        -0.05367
C         11.03497         7.70734         0.32520
C          9.78607         8.43300         0.04437
C         11.07843        10.53871         0.06389
C          9.80796         9.84524        -0.02442
C         11.04534        11.97512         0.22361
C          9.86784        12.67795         0.15784
C         11.07569        14.90906         0.30184
C          9.84045        14.12484         0.46056
C         11.05262        16.27924         0.22937
C          9.81200        17.03680         0.16644
C         11.04406        19.21326         0.26648
C          9.84965        18.46145         0.11682
C         11.04942        20.61658         0.26607
C          9.83000        21.36874         0.16294
C         11.05755        23.52804        -0.05952
C          9.84489        22.80923         0.02380
C         11.06387        24.91331        -0.39418
C          9.81779        25.61316        -0.47372
C         11.08523        27.69695        -0.74751
C          9.84975        27.03193        -0.62907
C         11.11176        29.17343        -0.44670
C          9.84926        29.88360        -0.88917
C         11.04999        32.08613        -0.45166
C          9.81832        31.38190        -0.82366
C         11.01080        33.43838        -0.16545
C          9.77579        34.16764        -0.24300
C         11.10883        36.37082         0.14044
C          9.82991        35.64676        -0.16240
C         11.05939        37.80569         0.51838
C          9.83043        38.50803         0.40279
C         13.50416         3.37612        -0.00707
C         12.28844         4.07554         0.05042
C         13.51619         6.22586         0.07043
C         12.29785         5.49884         0.12849
C         13.51668         7.68846         0.04310
C         12.32344         8.40430         0.11906
C         13.56513        10.55754         0.06104
C         12.29918         9.84309         0.07855
C         13.59334        11.95345         0.15171
C         12.33471        12.66784         0.46028
C         13.57769        14.82064        -0.09696
C         12.34713        14.16766         0.41934
C         13.57969        16.31280        -0.21123
C         12.34674        17.01142         0.28286
C         13.56214        19.22393        -0.09622
C         12.33698        18.49374         0.34776
C         13.61064        20.65757         0.20615
C         12.33291        21.33136         0.46268
C         13.59202        23.46788        -0.13713
C         12.33101        22.85891         0.27319
C         13.53089        24.79163        -0.75605
C         12.28962        25.60305        -0.67910
C         13.55455        27.73808        -1.42778
C         12.31133        26.99038        -0.89570
C         13.58217        29.24794        -0.99716
C         12.38557        29.89571        -0.80665
C         13.58337        32.04863        -0.14743
C         12.33559        31.36867        -0.63774
C         13.46527        33.33588         0.59536
C         12.20621        34.11524         0.41782
C         13.49483        36.23499         0.78585
C         12.30714        35.58696         0.48140
C         13.49979        37.68891         0.92736
C         12.26675        38.41465         0.86461
C         15.97024         3.39052         0.07768
C         14.74571         4.07571         0.00361
C         15.98723         6.22054        -0.42646
C         14.72465         5.51309        -0.02581
C         15.99494         7.70228        -0.16462
C         14.78010         8.39953        -0.06225
C         16.03365        10.52995        -0.06404
C         14.79578         9.82861        -0.02543
C         16.05596        11.95962        -0.04899
C         14.82926        12.67575         0.06188
C         16.05745        14.81360        -0.13181
C         14.85209        14.09716        -0.01250
C         16.06451        16.27932        -0.21454
C         14.88668        17.00029        -0.19253
C         16.10364        19.23734        -0.09506
C         14.86255        18.47939        -0.28712
C         16.07841        20.61630         0.03939
C         14.81413        21.34567         0.12126
C         16.07113        23.47809        -0.21318
C         14.80897        22.78546        -0.04400
C         16.10203        24.84441        -0.51196
C         14.85009        25.51095        -0.90808
C         16.08452        27.46170        -1.43507
C         14.84523        26.96746        -1.12101
C         16.08631        29.58128        -1.22581
C         14.81987        30.03290        -0.82715
C         16.04541        31.93456         0.16943
C         14.83629        31.27983        -0.13092
C         16.04819        33.30164         0.75283
C         14.74114        34.04652         0.93342
C         15.96425        36.19020         1.02868
C         14.74566        35.51669         0.93918
C         15.95945        37.63678         1.15127
C         14.71322        38.33658         1.15056
C         18.49121         3.38585         0.42264
C         17.18621         4.12829         0.55069
C         18.44116         6.20102        -0.08410
C         17.25506         5.53622         0.01163
C         18.47915         7.65531        -0.17185
C         17.23888         8.38968        -0.17265
C         18.51545        10.51062        -0.13553
C         17.26500         9.81011        -0.11548
C         18.53931        11.93790        -0.21941
C         17.28767        12.67349        -0.17337
C         18.52082        14.83247        -0.43480
C         17.27428        14.08530        -0.19494
C         18.52955        16.29538        -0.17671
C         17.34763        16.98398        -0.18272
C         18.58920        19.13571         0.29084
C         17.38826        18.49496        -0.37019
C         18.57274        20.64079         0.45791
C         17.31442        21.37977         0.16279
C         18.54322        23.54740         0.24497
C         17.30022        22.75624         0.05890
C         18.56494        24.95060        -0.20910
C         17.34056        25.59311        -0.54171
C         18.52700        27.77444        -0.81900
C         17.34535        26.94863        -0.95312
C         18.52944        29.22997        -0.75425
C         17.31301        30.03007        -0.70428
C         18.53006        32.03181         0.08207
C         17.29384        31.31556        -0.09073
C         18.51719        33.43174         0.40097
C         17.28063        34.10056         0.66810
C         18.45825        36.23259         0.93727
C         17.23154        35.48707         0.90912
C         18.42230        37.64716         1.15983
C         17.16882        38.32086         1.25886
C         19.65146         3.99997         0.16163
C         20.90293         6.20571         0.33233
C         19.74381         5.44505        -0.25234
C         20.88965         7.55679         0.32687
C         19.69929         8.32788        -0.01637
C         20.95628        10.48801        -0.07269
C         19.73630         9.77190        -0.06970
C         20.97525        11.86950        -0.19328
C         19.78250        12.61209        -0.29979
C         21.07057        14.86705        -0.43974
C         19.81445        14.07644        -0.54651
C         21.06557        16.18125        -0.17923
C         19.83575        16.92264         0.28812
C         21.03709        19.16105         0.22012
C         19.88577        18.43389         0.14814
C         21.02852        20.59890         0.27198
C         19.87751        21.33181         0.36338
C         21.06855        23.57700        -0.04372
C         19.88122        22.81923         0.37642
C         21.01550        24.90965        -0.29748
C         19.77326        25.65255        -0.34063
C         20.95932        27.82204        -0.43493
C         19.75382        27.08006        -0.56365
C         20.95351        29.19597        -0.40094
C         19.73685        29.92475        -0.47647
C         20.94449        32.11325        -0.14698
C         19.74200        31.35934        -0.19998
C         20.94011        33.46084         0.16240
C         19.73770        34.15909         0.44294
C         20.89676        36.34413         0.82973
C         19.71105        35.57862         0.74357
C         20.85326        37.71442         1.08365
C         19.63259        38.36925         1.23696
O         12.34123        22.24382         1.60418
O         10.95787         6.93748         1.57908
O         15.40728        33.41136         2.07917
O         13.34143        15.48125        -1.39447
O         16.14162        28.61255        -2.22771
O          1.67648         6.85527         1.57506
O         12.52275        33.40269         1.70410
O          4.56318        35.06462        -1.95899
O          5.49986        23.29194         1.53202
O          7.87366        18.79223        -1.31166
O         12.47336        13.46984         1.69724
O          4.91363        17.76161         1.89839
O         14.19367        24.83619        -2.06762
O         19.19050        23.36361         1.55114
O          4.24952        10.36541        -1.88298
O         12.55956        17.70161         1.56862
O          1.98753        33.76931         1.46124
O         13.17317        32.15225        -1.56526
O          4.16785         5.81762        -1.89722
O         10.63740        36.18961        -1.26665
O          1.94530         4.66012        -1.46017
O          7.71134        35.86981         1.16178
O          1.30262        10.14863        -1.48756
O          7.43839         4.47196        -1.33422
O         19.08673        14.47600        -1.76858
O          9.11767        14.46040         1.71312
O         18.39431        19.71569         1.60959
O         14.03024        18.91170        -1.45267
O          9.93172        30.63962        -2.12521
O          4.12444        29.54955        -2.11158
O         16.00151         6.09193        -1.90583
H         16.87633         6.40953        -2.21780
O         16.98108         4.31132         2.00874
H         17.78128         4.75617         2.36147
O          7.37163        29.96977         1.16986
H          7.44018        29.04627         1.49600
O         19.97602         5.41892        -1.70543
H         20.18342         6.33620        -1.98370
O         19.80761        16.71089         1.74656
H         19.27272        17.43142         2.14707
O          8.75810        12.18363        -1.86727
H          7.98195        11.74573        -2.27940
O         17.63032        18.68234        -1.80484
H         16.85581        18.32714        -2.29197
O          6.43651        36.78311        -2.14448
H          5.89590        36.14774        -2.67308
O         11.05490        29.25381         1.02274
H         11.80018        28.73410         1.39162
O         13.38554        27.77289        -2.86362
H         14.21364        28.13708        -3.24654
H          1.25211         2.23422         0.66009
H         -0.89738         3.46326         0.87423
H         -0.95424         5.92018         0.84129
H         -0.76565         7.93389         1.24262
H         -0.93442        10.32774         0.89601
H         -1.03777        12.22858         0.32447
H         -1.03728        14.65675         0.55632
H         -1.03674        16.54413         0.36358
H         -1.03668        18.96241         0.27420
H         -1.04326        20.82897         0.09767
H         -1.05776        23.23249        -0.18144
H         -1.05394        25.12824        -0.30363
H         -1.04610        27.55367        -0.38880
H         -1.02710        29.40895         0.06524
H         -1.00173        31.84227         0.25747
H         -1.05844        33.82320         0.14141
H         -0.95785        36.24762         0.42206
H          0.31386        38.34019         0.74740
H          3.70325         2.31468         0.28619
H          2.45978        39.59155         0.63027
H          5.88315         2.36555         0.77153
H          4.91408        39.58559         0.47876
H          8.73901         2.27977         0.83333
H          7.35809        39.63172         0.36316
H         11.05276         2.29485         0.23001
H          9.83754        39.59787         0.55977
H         13.50296         2.27657        -0.01079
H         12.28515        39.49431         1.07802
H         15.97862         2.29016         0.07145
H         14.72648        39.43014         1.27322
H         18.48192         2.31356         0.67497
H         17.16394        39.41432         1.38168
H         20.58702         3.41892         0.13572
H         21.80429         5.65782         0.64512
H         21.77832         8.10190         0.67629
H         21.91213         9.94982        -0.02227
H         21.94399        12.38612        -0.22968
H         22.01866        14.37305        -0.70255
H         22.02234        16.72392        -0.17324
H         22.01734        18.66487         0.19856
H         22.00229        21.10638         0.23043
H         22.02361        23.04700        -0.16661
H         21.94589        25.41744        -0.58566
H         21.91170        27.29863        -0.28299
H         21.90141        29.72206        -0.22996
H         21.90589        31.63655        -0.37999
H         21.89932        33.99567         0.17445
H         21.87509        35.86331         0.69734
H         21.79103        38.28361         1.14895
H         19.60371        39.45377         1.41426
