         661
 CSIRO Nanostructure Databank - Neutral Graphene Oxide Data Set
C          5.85537        31.81298         0.57661
C          5.86449        33.18487         0.58898
C          8.30764        27.48471         0.51031
C          8.27146        28.86221         0.32966
C          7.07599        29.64069         0.42547
C          8.28107        31.79110         0.23825
C          7.06227        31.04418         0.40213
C          8.29386        33.17568         0.29017
C          7.08365        33.93732         0.43760
C          8.31432        36.09787         0.21159
C          7.10971        35.34107         0.34713
C          8.34749        37.47406         0.05174
C         10.79448        23.20769         0.64284
C         10.78794        24.60794         0.61900
C          9.56581        25.35469         0.61412
C         10.80451        27.46725         0.47137
C          9.54307        26.74527         0.51384
C         10.82644        28.85967         0.31339
C          9.54826        29.55814         0.05313
C         10.80920        31.76565         0.38779
C          9.54164        31.05303        -0.01520
C         10.82364        33.18309        -0.12038
C          9.53849        33.92277        -0.02574
C         10.84867        36.07039        -0.10861
C          9.61925        35.36438         0.41286
C         10.83286        37.45510        -0.24177
C          9.58377        38.20287        -0.10558
C         10.81634        40.34001        -0.40287
C          9.60573        39.58743        -0.17076
C         10.80841        41.71823        -0.46367
C         13.21533        18.80031         0.75775
C         13.21617        20.31752         0.69834
C         12.01875        21.03783         0.66192
C         13.24879        23.15283         0.44646
C         12.00907        22.45773         0.59723
C         13.28569        24.59909         0.50188
C         12.04264        25.33157         0.61974
C         13.27914        27.48767         0.76338
C         12.02865        26.73320         0.61055
C         13.31046        28.92197         0.41220
C         12.06283        29.59709         0.25282
C         13.28403        31.72020        -0.02208
C         12.07825        31.00892         0.11489
C         13.29861        33.17260        -0.15208
C         12.10515        33.91448        -0.10124
C         13.29600        36.01806        -0.48703
C         12.07845        35.33329        -0.23700
C         13.28210        37.45164        -0.62637
C         12.05321        38.16773        -0.50798
C         13.28662        40.26523        -0.72295
C         12.06203        39.58525        -0.58656
C         13.29242        41.73027        -0.54303
C         12.03241        42.47757        -0.91990
C         13.32451        44.61842        -0.59994
C         12.12569        43.93720        -0.54767
C         13.36561        46.06110        -0.50894
C         15.72052        14.57174         1.84446
C         15.72704        16.07133         1.64850
C         14.57995        16.74288         1.33160
C         15.71437        18.89765         1.18779
C         14.55205        18.17133         1.12057
C         15.71292        20.34467         0.93382
C         14.43895        21.01634         0.59530
C         15.70136        23.07602        -0.02694
C         14.45007        22.40816         0.38435
C         15.73087        24.59487        -0.01816
C         14.50765        25.27668         0.43572
C         15.83262        27.42780         0.39911
C         14.59164        26.70309         0.71680
C         15.83450        28.92723         0.61595
C         14.52114        29.60944         0.28202
C         15.75201        31.70482        -0.25577
C         14.52491        31.00911        -0.00388
C         15.75835        33.11553        -0.49050
C         14.53295        33.85449        -0.37922
C         15.73656        35.94363        -0.84820
C         14.51791        35.27110        -0.56040
C         15.69953        37.37891        -1.16772
C         14.48442        38.15862        -0.87723
C         15.76895        40.31294        -1.02548
C         14.51547        39.57254        -0.88002
C         15.81831        41.71066        -0.92653
C         14.59937        42.46431        -0.60321
C         15.78658        44.60062        -0.94547
C         14.59473        43.92655        -0.76808
C         15.81989        46.10175        -1.20152
C         14.49271        46.82810        -0.70042
C         15.42041        49.10324        -0.48846
C         14.36546        48.25454        -0.83783
C         15.76650        50.37862        -0.92722
C         18.17487        10.53176         0.46181
C         18.22303        11.81580         0.92027
C         17.01540        12.59449         1.08124
C         18.30006        14.58403         1.72285
C         17.03661        13.88832         1.52779
C         18.26010        16.03626         2.06665
C         16.96586        16.80778         1.95166
C         18.28681        18.97412         1.32923
C         16.98689        18.31303         1.67056
C         18.29907        20.21343         0.75089
C         17.03724        21.00324         0.66072
C         18.30814        23.10846        -0.09099
C         17.00840        22.33159        -0.03412
C         18.23201        24.57632         0.07635
C         17.04324        25.27834         0.10826
C         18.24669        27.47486         0.03746
C         17.01610        26.73663         0.21883
C         18.23499        28.84485        -0.18938
C         17.00893        29.60048        -0.04656
C         18.19394        31.59994        -0.94360
C         16.97212        30.94765        -0.34558
C         18.22465        33.09534        -0.81487
C         16.98353        33.81047        -0.76489
C         18.19100        35.96350        -1.03213
C         16.95670        35.23986        -0.91363
C         18.24563        37.34628        -1.08811
C         17.01356        38.12520        -1.30117
C         18.21487        40.28341        -1.17619
C         17.01111        39.60225        -1.16777
C         18.28425        41.72836        -1.21522
C         17.02957        42.45623        -1.14200
C         18.24438        44.60313        -1.51032
C         17.00914        43.86635        -1.16746
C         18.35444        46.04008        -1.20137
C         17.18660        46.69940        -0.77237
C         18.47317        48.80715        -0.61047
C         17.34770        48.01041        -0.31144
C         18.37737        50.28297        -0.65025
C         17.05916        50.98180        -0.72817
C         18.23454        53.13918        -0.57047
C         17.04082        52.37223        -0.66072
C         18.23749        54.41349        -0.06132
C         20.44684         6.45017        -1.48853
C         20.52771         7.81205        -0.83442
C         19.37390         8.45932        -0.47981
C         20.71038        10.39549         0.47822
C         19.39272         9.71051         0.30385
C         20.74660        11.82980         0.83603
C         19.50580        12.40222         1.48117
C         20.79012        14.58891         1.57528
C         19.50318        13.91533         1.56417
C         20.83437        16.03246         1.96282
C         19.54375        16.80542         2.08960
C         20.82434        18.80961         1.17104
C         19.57078        18.34587         1.90483
C         20.82868        20.17596         0.49103
C         19.52566        20.88294         0.13075
C         20.74694        23.08283         0.40926
C         19.56897        22.39969         0.28193
C         20.80040        24.52784         0.22951
C         19.51251        25.25907         0.34877
C         20.75186        27.39371        -0.22836
C         19.52803        26.77355         0.20797
C         20.75877        28.80717        -0.68196
C         19.47257        29.54625        -0.42594
C         20.71554        31.64748        -0.45203
C         19.47919        30.91662        -0.55937
C         20.68918        33.04404        -0.57920
C         19.46121        33.74639        -0.85448
C         20.65613        35.92088        -0.63880
C         19.46888        35.20352        -1.28960
C         20.70867        37.40971        -0.87844
C         19.49779        38.06341        -0.96291
C         20.71175        40.27134        -0.68944
C         19.44254        39.53033        -0.85090
C         20.81295        41.63251        -1.31569
C         19.51258        42.39286        -1.23860
C         20.84176        44.59562        -1.32945
C         19.57633        43.83170        -1.50112
C         20.86052        45.97358        -1.38630
C         19.61123        46.71687        -1.24635
C         20.85105        48.91382        -1.32427
C         19.62631        48.12810        -1.05913
C         20.90150        50.34827        -0.78589
C         19.53360        51.01402        -0.81622
C         20.74339        53.29186        -0.93472
C         19.45073        52.48984        -1.17466
C         20.70805        54.55851        -0.15985
C         19.45821        55.13573         0.19265
C         20.58993        57.07250         1.18368
C         19.40523        56.37429         0.85033
C         20.53943        58.33477         1.81913
C         22.93947         3.64889        -2.13359
C         21.73748         4.36962        -1.97317
C         22.97991         6.29635        -1.14604
C         21.75302         5.68450        -1.50942
C         22.99546         7.67013        -0.71026
C         21.82561         8.41047        -0.60318
C         23.17752        10.47749         0.08780
C         21.86172         9.90002        -0.36816
C         23.20417        11.82603         0.51448
C         21.93930        12.51127         0.83361
C         23.24464        14.62148         1.05781
C         21.95190        13.91282         1.22748
C         23.30450        16.07370         1.32806
C         22.11612        16.79295         1.86741
C         23.30903        18.85883         1.12739
C         22.12489        18.24264         1.55045
C         23.29134        20.26252         0.75523
C         22.07866        20.92843         0.57294
C         23.28697        23.12463         0.42024
C         22.02480        22.41040         0.84653
C         23.27415        24.51889         0.16328
C         21.98975        25.20700         0.06859
C         23.22949        27.42161        -0.09771
C         21.99970        26.62012        -0.48953
C         23.17881        28.76827         0.14175
C         21.96721        29.53685        -0.10624
C         23.16228        31.67493         0.23310
C         21.92514        30.91651        -0.08776
C         23.24798        33.07164        -0.26748
C         21.93335        33.82725        -0.18276
C         23.22456        35.96258        -0.72793
C         21.95547        35.14960        -0.96268
C         23.12984        37.38671        -0.35411
C         21.94694        38.09372        -0.53443
C         23.06498        40.26466        -0.04159
C         21.96824        39.53093        -0.45269
C         23.05989        41.72039        -0.20275
C         22.01016        42.38730        -0.77393
C         23.42452        44.58594        -0.89502
C         22.09577        43.80384        -1.21030
C         23.36696        46.04717        -0.92513
C         22.21009        46.67884        -1.66371
C         23.39784        48.97860        -1.15112
C         22.16780        48.20749        -1.52278
C         23.37142        50.37399        -1.09120
C         22.07349        51.11521        -1.48377
C         23.36782        53.34473        -0.81691
C         22.07320        52.62207        -1.15318
C         23.20151        54.61455        -0.03426
C         21.91907        55.20967         0.20393
C         23.05291        57.17708         1.19779
C         21.85724        56.47459         0.87213
C         22.98902        58.46447         1.80883
C         21.71954        59.04428         2.13262
C         22.86692        61.00242         3.03596
C         21.68571        60.32157         2.75559
C         24.15286         4.24717        -1.86381
C         25.46215         6.20912        -1.18818
C         24.21611         5.58332        -1.35705
C         25.59806         7.48491        -0.51083
C         24.26327         8.26546        -0.23151
C         25.62403        10.33071         0.18152
C         24.36287         9.72563        -0.02546
C         25.67836        11.71818         0.51825
C         24.46138        12.45395         0.71593
C         25.73501        14.51013         1.17156
C         24.52531        13.86585         1.01570
C         25.86037        15.96758         1.44813
C         24.60137        16.76663         1.56616
C         25.78393        18.84460         0.91612
C         24.58700        18.19909         1.22844
C         25.75738        20.25735         0.61766
C         24.54008        20.96917         0.61363
C         25.70708        23.11350         0.15481
C         24.50244        22.41011         0.39221
C         25.72704        24.52976         0.07918
C         24.49617        25.22883         0.05050
C         25.74614        27.43995         0.26670
C         24.54159        26.70441        -0.29014
C         25.70301        28.76759         0.55432
C         24.37072        29.43399         0.83073
C         25.71469        31.64249         0.41109
C         24.40934        30.95385         0.63721
C         25.66010        33.15165         0.44630
C         24.42868        33.74306        -0.22288
C         25.66014        35.95423         0.04652
C         24.47310        35.21224        -0.42551
C         25.60510        37.34106         0.28100
C         24.28138        38.02875         0.30335
C         25.45225        40.30425         0.98541
C         24.20906        39.53031         0.54696
C         25.50648        41.63222         0.19527
C         24.21832        42.48933         0.40421
C         25.41076        44.72006         0.65401
C         24.42590        43.88816        -0.12995
C         25.64708        46.03823        -0.06051
C         24.52690        46.76010        -0.56586
C         25.72670        48.90502        -0.37929
C         24.58127        48.22487        -0.72909
C         25.86372        50.38412        -0.64043
C         24.53386        51.11638        -0.64427
C         25.69435        53.21282         0.02062
C         24.51988        52.48259        -0.38611
C         25.64383        54.57342         0.29230
C         24.37289        55.27393         0.35508
C         25.51209        57.34914         1.13967
C         24.31937        56.59657         0.90535
C         25.44324        58.60095         1.71961
C         24.18874        59.17717         2.09408
C         24.10841        60.44880         2.70912
C         26.81421         8.27821        -0.53713
C         28.08648        10.30785        -0.01424
C         26.85470         9.60674        -0.08280
C         28.15307        11.66978         0.35453
C         26.93949        12.35403         0.67182
C         28.31269        14.51329         0.99402
C         26.98736        13.74479         1.12188
C         28.27414        15.98298         0.81695
C         27.08329        16.69729         1.04036
C         28.22915        18.79289         0.47258
C         27.03488        18.10705         0.83577
C         28.18891        20.20336         0.20426
C         26.99061        20.90543         0.26812
C         28.24075        23.11189        -0.04450
C         26.93913        22.34832        -0.05606
C         28.18257        24.54646         0.24730
C         26.99830        25.25378         0.15098
C         28.18898        27.39942         0.46725
C         27.01297        26.70910         0.30260
C         28.30764        28.84187         0.92520
C         26.91294        29.56603         1.06308
C         28.21461        31.72182         0.56179
C         26.89576        30.97816         0.47492
C         28.13275        33.14288         0.03531
C         26.93934        33.81841         0.01455
C         28.07340        36.02517        -0.12378
C         26.89405        35.27135        -0.04886
C         28.04319        37.41344         0.14617
C         26.80581        38.05967         0.45406
C         28.06476        40.24925         0.85248
C         26.77479        39.49060         0.88440
C         28.08455        41.73587         0.63863
C         26.79092        42.45747         0.42861
C         28.02543        44.59920         1.10451
C         26.71180        43.89661         0.89560
C         28.06092        46.05394         0.85663
C         26.94282        46.67711         0.11396
C         27.96175        48.88298         0.88964
C         26.97053        48.19897        -0.02787
C         28.03481        50.36740         0.65907
C         26.97542        51.04728         0.14866
C         27.89638        53.13033         1.18390
C         27.05823        52.54994         0.03878
C         27.96301        54.62957         1.07147
C         26.85702        55.30178         0.67637
C         26.82352        56.80829         0.61573
C         29.39215        12.38477         0.29445
C         30.66505        14.50119         0.22714
C         29.48316        13.77194         0.47311
C         30.70658        15.92021         0.29486
C         29.47087        16.66366         0.47898
C         30.71224        18.77914         0.18385
C         29.46383        18.07599         0.35685
C         30.73403        20.18198         0.09459
C         29.45730        20.92848        -0.20976
C         30.74326        23.08419         0.19841
C         29.45896        22.32824         0.41582
C         30.72761        24.46415         0.28894
C         29.46673        25.19722         0.53979
C         30.69552        27.42071         0.10281
C         29.48260        26.70402         0.56917
C         30.62960        28.80048        -0.15682
C         29.41120        29.56837         0.14434
C         30.51657        31.65310        -0.71145
C         29.37490        30.92295        -0.02493
C         30.54065        33.15607        -0.44360
C         29.36784        33.84149        -0.26932
C         30.56499        36.08038        -0.45687
C         29.28663        35.31557        -0.65985
C         30.49861        37.48381        -0.20897
C         29.30156        38.13070         0.13526
C         30.63181        40.33083         0.55557
C         29.34806        39.50682         0.62654
C         30.57877        41.81157         0.66147
C         29.35527        42.47301         0.90644
C         30.54485        44.58601         1.09869
C         29.33196        43.87611         1.01748
C         30.53335        46.05554         1.45589
C         29.26311        46.76406         1.01376
C         30.51308        48.90810         1.12937
C         29.28989        48.16747         0.91463
C         30.45242        50.32525         1.28398
C         29.25518        51.06384         1.11283
C         29.22079        52.43883         1.28298
C         31.91318        16.62507         0.15675
C         33.17097        18.75729         0.09966
C         31.95353        18.04741         0.15849
C         33.20272        20.17323         0.09310
C         31.95489        20.89126         0.06530
C         33.19276        23.01352         0.09369
C         31.97832        22.33398         0.07842
C         33.22801        24.48781         0.41281
C         31.92935        25.24363         0.16764
C         33.09463        27.23777        -0.71752
C         31.88709        26.62466        -0.03703
C         33.08432        28.76675        -0.77878
C         31.84016        29.55251        -0.48962
C         33.15153        31.73416        -0.44740
C         31.85045        30.93046        -0.56684
C         33.08660        33.21005        -0.91335
C         31.77132        33.91589        -0.78843
C         33.00820        36.07782        -0.34117
C         31.78450        35.39400        -0.56902
C         33.05688        37.51423        -0.46647
C         31.70973        38.30084        -0.41118
C         32.99976        40.46800        -0.31723
C         31.76225        39.70320        -0.08777
C         33.02649        41.91266         0.08716
C         31.77234        42.54881         0.56061
C         33.06619        44.60397         1.02439
C         31.77893        43.92382         0.88954
C         33.05742        46.07336         1.40640
C         31.78165        46.75725         0.88579
C         31.73217        48.23048         1.17559
C         34.42439        20.89728         0.10771
C         35.67940        23.03536         0.18658
C         34.44875        22.30998         0.12173
C         35.75316        24.44973         0.06988
C         34.44228        25.14973        -0.26223
C         35.70188        27.38048        -0.20987
C         34.36708        26.67270         0.00859
C         35.69530        28.76445        -0.70503
C         34.39342        29.47084        -0.81879
C         35.56732        31.43831        -1.34988
C         34.40000        30.94936        -0.84237
C         35.58671        33.60194        -1.07103
C         34.29469        34.07846        -0.69600
C         35.54048        36.11494        -0.07461
C         34.26681        35.39712        -0.25705
C         35.57911        37.48851        -0.10485
C         34.30033        38.24031        -0.08168
C         35.56960        40.49592        -0.38792
C         34.29000        39.72694        -0.10944
C         35.50618        41.86260         0.28554
C         34.32797        42.53981         0.44820
C         34.24855        43.92657         0.88667
C         36.95166        25.12392        -0.12449
C         38.17647        27.30240        -0.82033
C         37.02369        26.59208        -0.27151
C         38.17728        28.71901        -0.87658
C         36.89581        29.42058        -0.86805
C         37.98224        31.64789        -0.85146
C         36.87922        30.85872        -1.10011
C         37.96889        33.12275        -0.57162
C         36.75890        33.97092        -0.49065
C         38.06861        36.06016        -0.26056
C         36.81592        35.31551         0.20593
C         38.13209        37.54562         0.06755
C         36.80438        38.28206        -0.04878
C         36.79165        39.64517        -0.09633
C         39.33004        29.50184        -1.03106
C         40.41182        31.80487        -1.30873
C         39.32995        30.96275        -0.63724
C         40.38766        33.15258        -1.30623
C         39.25661        33.90967        -0.71342
C         39.15051        35.39797        -0.73939
O         36.53260        27.25949         0.98292
O         32.32951        33.49678        -2.12372
O         27.85728        14.02099         2.28613
O         32.97629        41.50420        -1.35534
O          9.57979        30.29451        -1.24646
O         16.27318        37.68684        -2.49216
O         18.88288        44.19594        -2.75122
O         29.57338        25.92763         1.81684
O         16.85487        17.79086         3.02980
O         15.73612        46.27971        -2.56333
O         32.41877        38.00964        -1.67411
O         24.90214         7.50987         0.80201
O         27.20795        44.10023         2.25705
O         17.69211        22.50518        -1.28735
O         20.22106         9.54660         1.56059
O         24.19988        35.69614        -1.81536
O         33.64511        29.13773        -2.10321
O         38.83866        33.40371         0.61447
O         34.21420        39.02931         1.17433
O         25.32261        16.37575         2.76871
O         21.44435        53.41286        -2.22528
O         21.40702        48.73876        -2.65777
O         21.67529        16.30365         3.15972
O         27.67489        42.21494        -0.71755
O         14.00609        27.14886         2.00580
O         27.49538        47.38845        -1.08963
O         19.87301        40.09404         0.49343
O         23.94288        53.77390        -2.21165
O         23.07012        44.00219        -2.22287
O         15.52544        23.84044        -1.26129
O         35.60147        32.62901        -2.06338
O         16.42032        21.11670         1.98918
O         19.53881        26.08751         1.55382
O         13.94627        42.10145         0.70223
O         27.63159        22.72729        -1.30429
O         23.15287        15.62936        -0.05807
O         27.52015        39.77147         2.11979
O         16.32135        48.55936         0.45004
O         23.57056        31.62005         1.66409
O         23.85571        38.58630         1.61332
O         10.06330        33.53390        -1.33248
O         26.68221        29.81941         2.44860
O         18.91052        16.38327         3.33880
O         30.22199        39.65136         1.80676
O         20.82821        18.92018        -0.29204
O         19.69527        18.91147         3.22396
H         19.10754        18.38507         3.81588
O         21.07789        41.38460        -2.72818
H         21.12022        42.24749        -3.19397
O         26.97435        57.23211        -0.75348
H         26.30486        56.76115        -1.29275
O         36.91328        35.15464         1.64130
H         37.66063        34.53020         1.79524
O         19.57502        11.93616         2.87135
H         19.72226        10.95892         2.82822
O         12.00671        42.43741        -2.39148
H         11.20898        42.91940        -2.69490
O         32.95705        26.78003        -2.06815
H         33.33916        27.47273        -2.65834
O         10.71976        31.86671         1.84687
H         11.48063        32.39514         2.16864
O         19.50283        35.20154        -2.73369
H         20.34085        34.77067        -3.02631
O         31.80014        46.59660        -0.55871
H         31.02596        47.07233        -0.92911
O         21.96752        34.75678        -2.35295
H         22.89068        34.90534        -2.68288
O          9.80802        35.27402         1.86924
H          9.76729        36.18451         2.23153
O         28.86072        28.71620         2.25437
H         28.11690        28.99387         2.86212
O         19.19114        52.48135        -2.60585
H         20.00624        52.13380        -3.04068
O         12.20511        18.32955         1.65682
H         12.46608        18.57689         2.56760
O         23.88741        42.68301         1.79422
H         24.20947        41.91086         2.32439
O         25.48815        33.53299         1.84671
H         24.81077        32.91846         2.22398
O         27.16181        52.81654         2.41590
H         27.66106        53.19964         3.16713
O         24.74475        26.72265        -1.76915
H         25.55512        26.19989        -1.95794
O         25.45836        41.22204        -1.18548
H         26.27902        41.54016        -1.63340
O         20.34319        35.85826         0.77421
H         21.05686        36.29614         1.28416
O         39.64993        30.91426         0.78742
H         39.53448        31.83690         1.12766
O         25.28091        40.59210         2.38579
H         25.00807        39.74936         2.81671
O         18.09048        31.37790        -2.40547
H         18.56654        30.54621        -2.62072
O         21.60481        10.50787        -1.68419
H         22.35990        10.29346        -2.27164
O         34.20265        46.73918         0.87688
H         34.07182        46.79728        -0.09377
O         21.99080        22.51538         2.31669
H         22.85683        22.21336         2.66488
O         28.48029        31.83631         1.99140
H         27.89084        31.17148         2.45038
O         22.08312        26.43172        -1.96434
H         23.05153        26.40186        -2.19221
O         27.70892        52.86273        -1.21410
H         27.31267        52.27761        -1.90049
O         39.14022        38.20379        -0.69859
H         38.80111        38.34247        -1.60646
O         27.37791        48.72847         2.23074
H         27.94814        49.21898         2.86002
O         22.44710        46.42575        -3.07610
H         21.86439        47.04789        -3.57031
O         35.60871        40.75255        -1.82280
H         34.76868        41.22223        -2.05081
O         26.34307        50.48519        -2.03914
H         25.70964        49.99496        -2.60731
O         23.47273        55.09608        -2.53068
H         22.51253        54.93064        -2.73156
O         33.30834        31.91024         1.00717
H         33.18344        31.04274         1.44783
O         19.35965        20.68378        -1.30265
H         19.72351        19.79358        -1.51468
O         29.31449        22.13324         1.84977
H         29.57494        22.96177         2.30626
O         34.37495        24.92402        -1.68931
H         34.20980        23.96843        -1.83339
O         30.62622        46.15680         2.90176
H         29.82587        45.74093         3.28662
O         21.29003        50.28295         0.61733
H         20.55095        49.88462         1.12395
O         20.92488        28.84788        -2.14908
H         21.39432        28.00935        -2.40647
O         29.47693        21.08163        -1.65370
H         29.38419        20.19378        -2.05603
O         24.15661        29.18415         2.23725
H         25.02433        29.45091         2.67314
O         30.23605        31.58316        -2.15600
H         30.97128        32.06696        -2.60391
O         24.85142        45.09085         1.94665
H         25.49240        44.81002         2.64041
O         29.06860        35.27762        -2.11757
H         29.83823        34.81940        -2.52003
O         21.85941        34.07618         1.24732
H         22.04453        33.23099         1.71360
O         33.40473        24.49234         1.85956
H         33.30619        25.42793         2.15912
O         19.40870         5.66596        -0.88676
H         19.65307         5.50138         0.04707
O         34.06529        26.93382         1.40475
H         34.92491        26.92293         1.89110
O         14.64467        13.96806         1.12704
H         14.76544        14.14582         0.17226
O         21.89331        51.05440        -2.90822
H         22.46183        51.74213        -3.31500
O         16.01363        29.11167         2.06342
H         15.33816        28.53511         2.49763
H          4.90381        31.27380         0.69635
H          4.91921        33.73488         0.70923
H          7.36970        26.93336         0.67829
H          6.12519        29.10788         0.58330
H          6.15272        35.88662         0.35863
H          7.40342        38.03967         0.00821
H          9.83802        22.66573         0.69066
H          8.61443        24.80276         0.65386
H          8.66196        40.14458        -0.06501
H          9.85914        42.26246        -0.33355
H         12.92144        18.42105        -0.26283
H         11.06499        20.49566         0.73948
H         11.19065        44.50942        -0.43184
H         12.43124        46.56775        -0.21337
H         15.51347        14.38598         2.93668
H         13.64744        16.17732         1.18924
H         13.52489        48.65319        -1.42966
H         15.00809        50.99020        -1.43996
H         17.20999        10.09098         0.16545
H         16.04732        12.11871         0.86151
H         16.07305        52.88712        -0.55970
H         17.29043        54.86173         0.27579
H         20.13380         6.60258        -2.56131
H         18.40344         7.98240        -0.68474
H         18.42827        56.80948         1.10596
H         19.56071        58.77639         2.05866
H         22.90473         2.61416        -2.50207
H         20.77649         3.90123        -2.22675
H         22.82393        61.99055         3.51528
H         20.71466        60.76916         3.01133
H         25.09132         3.69607        -2.01841
H         26.36525         5.72621        -1.58935
H         26.36525        59.17821         1.88599
H         25.03294        61.00220         2.92728
H         27.72613         7.82553        -0.95342
H         29.01524         9.77411        -0.26304
H         28.86918        55.16880         1.39001
H         27.68132        57.24209         1.18747
H         30.28949        11.83462        -0.02670
H         31.58405        13.95550        -0.03479
H         31.37905        50.86995         1.51799
H         30.12042        52.98492         1.60613
H         32.85517        16.06443         0.06226
H         34.11814        18.19777         0.08129
H         33.09386        46.16728         2.52245
H         32.67335        48.78936         1.28879
H         35.37360        20.34134         0.13823
H         36.61547        22.46431         0.29006
H         36.45505        42.37766         0.50406
H         35.19057        44.47126         1.05321
H         37.89706        24.55891        -0.13969
H         39.09296        26.74178        -1.05557
H         38.45858        37.60436         1.14404
H         37.76038        40.17032        -0.06949
H         40.30996        29.00124        -1.08128
H         41.27728        31.28155        -1.74421
H         41.20440        33.72475        -1.77315
H         40.04346        35.97477        -1.03197
