         300
 CSIRO Nanostructure Databank - Neutral Graphene Oxide Data Set
C         30.88192        31.35455         1.52322
C         30.89270        32.58331         1.79601
C         30.97033        35.68420         2.34272
C         30.87398        36.92040         2.24926
C         30.67839        40.23590         2.00854
C         30.63888        41.45718         1.77257
C         32.68630        28.82449        -0.59884
C         31.90748        29.26922         0.27617
C         32.83066        31.46288         0.13158
C         31.75255        30.58374         0.74278
C         32.90252        32.91360         0.49938
C         32.15634        33.43565         1.75196
C         33.11436        35.69914         1.31960
C         32.05864        34.92866         1.73674
C         33.28162        37.14373         1.87450
C         31.88090        37.87861         1.81001
C         33.12442        40.16248         1.76591
C         31.82194        39.34475         1.70257
C         32.94371        41.42185         0.87388
C         31.63753        42.53102         1.75413
C         32.73160        44.17920         0.23636
C         31.77917        43.61390         0.79000
C         35.30817        27.21124        -1.24059
C         35.17145        28.56911        -0.63677
C         33.98214        29.41481        -1.12573
C         35.26582        31.42524        -0.31060
C         34.05277        30.82403        -0.45319
C         35.40482        32.80646         0.37273
C         34.17449        33.66539         0.02102
C         35.54030        35.87274         0.52354
C         34.23338        35.12853         0.53608
C         35.73886        37.26661         1.18096
C         34.40324        38.01745         1.28926
C         35.66493        40.21486         1.43100
C         34.37459        39.37745         1.34349
C         35.51521        41.68217         0.95339
C         34.16353        42.29424         0.73903
C         35.26532        44.44854         0.13414
C         34.06665        43.56902        -0.12459
C         35.32174        45.84458         0.05095
C         37.66873        27.15964        -1.69979
C         36.29693        26.64421        -1.70981
C         37.64482        28.63508        -1.38724
C         36.51170        29.27873        -1.01185
C         37.70163        31.51054        -1.23827
C         36.44727        30.76311        -0.94526
C         37.86384        32.88101        -0.64389
C         36.71043        33.54574         0.03377
C         37.98119        35.87019        -0.22718
C         36.78542        35.06905         0.23816
C         38.09466        37.40501         0.03155
C         36.70419        38.09864         0.26758
C         38.17267        40.28271         0.46330
C         36.92745        39.51055         0.85534
C         38.10699        41.81099         0.47442
C         36.75815        42.47000         0.58972
C         37.74365        44.70617         0.00083
C         36.57510        43.90621         0.20633
C         37.65959        46.11341        -0.08932
C         36.33545        46.59824        -0.01717
C         40.20495        24.44110        -1.13787
C         39.07125        24.95430        -1.14902
C         39.91843        27.07495        -0.31137
C         38.88945        26.41241        -1.29960
C         39.95096        28.63966        -0.39289
C         39.06453        29.23896        -1.52478
C         40.16443        31.57915        -0.97680
C         39.01164        30.82323        -1.68049
C         40.30839        33.01298        -1.52052
C         38.94626        33.71741        -1.28758
C         40.23937        35.91634        -1.62810
C         38.94936        35.20875        -1.16615
C         40.24889        37.46859        -1.46802
C         38.98439        38.23148        -0.96687
C         40.26422        40.45818        -1.08633
C         39.39432        39.57462        -0.20549
C         40.27555        41.94447        -0.93030
C         39.32096        42.65179         0.01582
C         40.21239        44.88419        -1.00475
C         38.90223        43.97316        -0.70505
C         40.18210        46.18623        -0.15777
C         38.84572        46.96968        -0.39709
C         40.13492        48.75594         0.66916
C         38.99772        48.21575         0.54973
C         42.75477        24.54860        -0.55746
C         41.42122        25.06218        -0.69458
C         42.41112        27.12792         0.38980
C         41.30481        26.40849        -0.33925
C         42.37204        28.63529         0.60788
C         41.14564        29.41191         0.11451
C         42.56707        31.63442         0.02121
C         41.24435        30.91454        -0.16531
C         42.68624        33.06285        -0.42013
C         41.42263        33.80357        -0.80569
C         42.81996        35.96641        -1.27781
C         41.47216        35.28382        -0.99457
C         42.79174        37.48792        -1.11066
C         41.57399        38.22235        -1.46752
C         42.80992        40.52826        -1.36791
C         41.54876        39.75581        -1.47157
C         42.81066        41.89909        -1.26424
C         41.55876        42.70089        -1.20897
C         42.73774        44.81923        -0.66137
C         41.56696        44.15209        -0.84138
C         42.75148        46.25917        -0.15525
C         41.43575        47.03651        -0.48725
C         42.75472        48.84446         0.49861
C         41.44460        48.41163         0.37089
C         43.76220        25.10680        -0.10963
C         44.97054        27.10585         1.05667
C         43.75576        26.38731         0.61115
C         44.96492        28.64234         1.33738
C         43.67652        29.40158         0.86549
C         45.13996        31.39781        -0.04646
C         43.79183        30.84438         0.44061
C         45.22714        32.93017        -0.29699
C         43.99944        33.68087        -0.88708
C         45.31007        35.93010        -0.72843
C         43.96740        35.23207        -0.50877
C         45.32110        37.43452        -0.84358
C         44.06233        38.21577        -1.18053
C         45.32523        40.46894        -0.85598
C         44.08585        39.73628        -1.32651
C         45.40164        41.96215        -1.06183
C         44.08197        42.67517        -1.14773
C         45.32824        44.79278        -0.62702
C         44.02163        44.02080        -0.43155
C         45.29021        46.30339        -0.52939
C         44.00076        47.09390        -0.61777
C         43.90013        48.34836         0.28956
C         47.44817        27.18242         1.09241
C         46.35162        26.63879         0.95164
C         47.54953        28.61248         1.61300
C         46.32119        29.28389         0.81986
C         47.48555        31.55340         0.97849
C         46.35986        30.82313         0.71007
C         47.49187        33.06414         0.97066
C         46.43533        33.71648         0.11890
C         47.76440        35.95670         0.16588
C         46.53499        35.19707        -0.19430
C         47.73800        37.46228         0.09985
C         46.50008        38.19099        -0.30113
C         47.89621        40.37971        -0.47530
C         46.55202        39.69519        -0.48170
C         47.87777        41.89295        -0.38259
C         46.59662        42.66929        -0.48197
C         47.93034        44.79819        -0.21842
C         46.58292        44.02320        -0.31194
C         47.56120        46.16229         0.30333
C         46.54001        46.80328         0.05841
C         50.09056        29.01791         1.41120
C         48.78732        29.40063         1.34562
C         50.01900        31.64295         1.76478
C         48.64533        30.91042         1.75673
C         50.03830        33.12011         1.39133
C         48.71622        33.86978         1.37203
C         50.15716        35.99070         0.84232
C         48.76802        35.42844         1.19969
C         50.29599        37.32494         0.14428
C         49.05976        38.12877        -0.31105
C         50.27962        40.28237         0.44196
C         49.06749        39.60984        -0.00075
C         50.35529        41.79229         0.27575
C         49.03376        42.54275         0.33329
C         50.38302        44.53179         0.60733
C         49.00353        44.04395         0.51598
C         51.29638        29.45207         1.42748
C         52.50238        31.76693         1.56535
C         51.38407        30.86400         1.83931
C         52.47611        33.00079         1.67389
C         51.35095        33.88560         1.34122
C         52.50063        36.16204         1.34206
C         51.30222        35.35103         1.69715
C         52.62968        37.20323         0.71351
C         51.66536        38.09507        -0.00856
C         52.72693        40.40301         0.54879
C         51.59218        39.47966         0.58630
C         52.77763        41.63212         0.71591
C         51.69750        42.55112         0.33409
C         51.46624        43.94909         0.72730
O         37.67565        42.33304         1.76659
O         51.11061        42.19574        -0.92387
O         45.60920        36.55114        -1.98946
O         32.11598        32.51420        -0.64304
O         44.94648        42.54725        -2.31459
O         31.66459        38.51754         0.51924
O         46.86543        37.97869         1.12492
O         41.98549        27.71441         1.66737
O         41.11796        34.73574         0.29959
O         34.62917        35.98634        -0.60062
O         39.94553        29.19340         0.93551
O         47.69292        33.54758         2.34478
O         45.64250        40.24523         0.55126
O         40.52318        40.14510        -2.46199
O         38.31479        43.64548        -1.91192
O         37.79594        32.90050         0.79856
O         44.27211        38.91696        -2.50334
O         33.73107        36.99327         3.17550
O         48.19906        41.23990        -1.64412
O         40.52252        42.52575        -2.22758
O         39.68331        28.77353        -2.68538
O         37.90430        35.28765         1.11542
O         50.68537        31.29220         3.02660
O         36.67865        31.41319        -2.25929
O         34.83257        42.48509         1.99807
O         46.37326        33.06200        -1.20066
O         43.57409        30.50816         1.82410
O         50.77782        39.67771         1.74483
O         38.35696        34.54144        -2.33171
O         38.69248        26.81057        -2.65478
O         38.01591        39.70884         1.79308
O         40.84084        37.88018        -2.72875
O         48.63008        43.16158         1.59580
O         40.12148        31.60189         0.46415
O         50.71526        33.44324         0.12320
O         47.70256        35.31860        -1.11437
O         42.56405        32.75119         0.98770
O         45.52667        45.64147        -1.81233
O         50.39961        36.05335        -0.58223
O         44.13973        26.37480         2.00099
O         40.08916        42.96136         1.18587
H         39.45406        43.06522         1.93352
O         32.46853        41.10697        -0.38657
H         31.81076        40.37912        -0.34637
O         45.15810        30.86296        -1.40887
H         45.77201        31.42592        -1.93908
O         35.96576        38.25777        -0.94486
H         36.56753        38.51687        -1.68255
O         49.04717        38.04226        -1.76070
H         49.12499        37.09044        -2.00172
O         38.80227        37.45276         1.27738
H         38.22137        37.04767         1.96823
O         32.91416        33.06338         2.89078
H         32.73930        33.69472         3.62103
O         36.26500        37.12541         2.49320
H         35.46230        37.03924         3.09646
O         43.74891        35.33496         0.90078
H         42.84725        34.98630         1.12058
O         50.99630        35.42431         3.07416
H         50.99484        36.35883         3.36795
O         40.37438        35.63856        -3.03901
H         39.59400        36.00358        -3.50963
O         42.87515        46.14380         1.28321
H         41.99990        45.81835         1.62130
O         44.91689        28.74869         2.76876
H         44.15294        28.21015         3.07850
O         34.16478        33.68853        -1.40364
H         33.57974        34.41096        -1.71474
O         48.38222        44.95678        -1.55137
H         47.65472        45.35893        -2.07884
O         33.26748        40.54639         3.14400
H         34.23922        40.64460         3.33760
O         44.03721        33.49953        -2.29791
H         44.81390        33.97825        -2.66087
O         38.25353        38.59719        -2.14171
H         38.90119        39.02630        -2.75768
O         32.06223        42.90722         2.99619
H         32.27563        42.09641         3.52065
O         34.10886        43.17196        -1.49082
H         33.98703        43.96113        -2.05746
O         41.40589        47.44943        -1.82415
H         40.80961        46.84974        -2.34685
O         35.39487        32.59911         1.78916
H         36.31830        32.40732         2.07339
O         43.07594        35.79807        -2.68445
H         42.34343        36.22908        -3.18585
O         40.20909        45.79969         1.23030
H         39.79129        46.50959         1.76728
O         40.34391        39.30365         0.84166
H         39.84176        38.95295         1.61965
O         38.76786        47.47317        -1.69828
H         37.82949        47.65231        -1.91822
O         44.01785        43.66203         0.97751
H         43.76883        44.46928         1.49138
O         48.18332        30.92409         3.10503
H         48.95030        30.75483         3.69921
O         39.08501        31.08294        -3.07261
H         39.41243        30.24708        -3.50244
O         34.02507        29.50745        -2.51790
H         33.39317        30.18346        -2.83628
O         40.69627        32.95964        -2.88559
H         40.47663        33.82687        -3.30612
O         35.07850        28.50672         0.77533
H         35.75034        27.88310         1.12125
O         35.89133        40.30998         2.85882
H         36.69667        40.86689         2.98351
O         40.11889        45.24389        -2.37805
H         39.39756        44.63354        -2.74033
O         51.94615        38.22663        -1.37696
H         51.90489        37.33928        -1.79235
O         48.42894        36.00837         2.46247
H         47.80168        35.40794         2.92733
O         46.51351        28.82011        -0.52857
H         46.02546        29.40955        -1.15680
O         43.84928        47.54186        -1.92961
H         44.72099        47.59931        -2.37222
O         47.45485        28.56092         3.00691
H         46.51209        28.42102         3.27921
O         39.34493        26.75056         0.96707
H         39.87820        27.22738         1.64829
