         234
 CSIRO Nanostructure Databank - Neutral Graphene Oxide Data Set
C          1.45406         2.25845         1.37510
C          1.35004         3.61466         1.13977
C          2.69383         1.60915         1.49260
C          2.52261         4.49467         1.14809
C          1.19441         6.52110         0.38676
C          1.09674         7.84154        -0.02157
C          2.42334         5.83409         0.52064
C          2.20478         8.49797        -0.72617
C          1.01778        10.70932        -0.80773
C          0.98954        12.05656        -0.56232
C          2.24127         9.97885        -0.87786
C          2.23039        12.76583        -0.24828
C          1.05868        15.13196        -0.14608
C          1.10072        16.47833        -0.12585
C          2.26909        14.28785         0.01425
C          2.37134        17.23282        -0.02542
C          2.39627        18.62950         0.46761
C          3.92111         2.31342         1.35574
C          3.90319         3.80163         1.26449
C          5.13547         1.65689         1.30555
C          5.10698         4.44364         0.67017
C          3.64073         6.57572         0.22530
C          3.53985         7.75082        -0.68279
C          5.03588         5.86299         0.28051
C          4.79815         8.48446        -1.05538
C          3.46973        10.71041        -0.90822
C          3.48569        12.08375        -0.60833
C          4.73600         9.98988        -1.24062
C          4.73605        12.87061        -0.58792
C          3.59519        14.96136         0.00881
C          3.63946        16.44944         0.06963
C          4.75805        14.25672        -0.04775
C          4.83772        17.07838         0.77365
C          3.57357        19.26316         0.69096
C          4.85375        18.57826         0.59087
C          6.40692         2.45665         1.33522
C          6.28369         3.73158         0.53642
C          7.64403         1.68160         1.03334
C          7.44421         4.23245        -0.17761
C          6.12463         6.42153        -0.49771
C          6.10610         7.78420        -0.88591
C          7.29517         5.58804        -0.78151
C          7.31181         8.49103        -1.07566
C          6.04057        10.73844        -1.25422
C          6.03752        12.19923        -0.89911
C          7.32764         9.96336        -1.17139
C          7.27217        12.73274        -0.17587
C          6.08059        14.88434         0.41126
C          6.10723        16.39204         0.34406
C          7.31472        14.24570        -0.17619
C          7.27967        17.08523         0.17061
C          6.03815        19.24087         0.44630
C          7.29827        18.54034         0.29813
C          8.74274         2.19081         0.37504
C          8.63915         3.52050        -0.26405
C          9.95287         1.38906         0.53530
C          9.77096         4.16566        -1.11428
C          8.59829         6.37071        -1.05186
C          8.56536         7.82669        -0.91987
C          9.85668         5.64421        -0.84023
C          9.75910         8.50639        -0.67659
C          8.57103        10.66439        -0.77982
C          8.55764        12.05678        -0.59674
C          9.78529         9.94233        -0.68416
C          9.76853        12.75475        -0.47695
C          8.46859        14.95104        -0.36282
C          8.52876        16.39835        -0.14863
C          9.73484        14.22852        -0.64848
C          9.71821        17.10360        -0.18578
C          8.50082        19.21347         0.28429
C          9.75244        18.52227         0.11652
C         11.15088         1.50009        -0.14860
C         11.12128         3.55568        -0.93920
C         12.44862         1.10553         0.24997
C         12.27490         4.13461        -0.50250
C         11.00207         6.28517        -0.46780
C         10.93017         7.75474        -0.07777
C         12.28891         5.59225        -0.31497
C         12.26029         8.44604        -0.33271
C         11.00387        10.65499        -0.53043
C         10.99405        12.05078        -0.46967
C         12.28572         9.92176        -0.52909
C         12.26020        12.77434        -0.20977
C         11.01679        14.98242        -0.70110
C         11.02745        16.50748        -0.67445
C         12.26251        14.26659        -0.25978
C         12.22106        17.02729         0.14219
C         10.96421        19.19797         0.21648
C         12.24534        18.54282         0.10044
C         13.59843         1.86443        -0.12180
C         13.54733         3.32628        -0.47332
C         14.85116         1.26247         0.02490
C         14.82223         4.10692        -0.16420
C         13.46073         6.28494        -0.09464
C         13.47903         7.76717         0.25817
C         14.72241         5.56255         0.17937
C         14.78078         8.50232        -0.05586
C         13.55236        10.65856        -0.32322
C         13.54555        12.04318        -0.29573
C         14.78314         9.91139        -0.24389
C         14.77368        12.79598        -0.35265
C         13.55600        14.98535        -0.38611
C         13.52168        16.36508        -0.27585
C         14.75887        14.19689        -0.45943
C         14.78513        17.13970        -0.17351
C         13.40183        19.25896         0.02522
C         14.75547        18.68455        -0.32019
C         16.09043         1.98009         0.04041
C         16.06144         3.38592         0.16007
C         17.33377         1.28575         0.04982
C         17.32187         4.11382         0.33146
C         15.99599         6.35850         0.35862
C         16.00539         7.81394         0.05271
C         17.31487         5.63596         0.36225
C         17.24683         8.49065        -0.09856
C         16.02056        10.63513        -0.25788
C         16.02486        12.06130        -0.33646
C         17.25785         9.91590        -0.19469
C         17.26476        12.76608        -0.26993
C         16.03971        14.90465        -0.79965
C         16.04050        16.36010        -0.39237
C         17.28738        14.19536        -0.31184
C         17.36511        17.00037        -0.58097
C         15.86971        19.30003         0.51978
C         17.18873        19.03317         0.21926
C         18.56251         1.97758        -0.04668
C         18.56817         3.40434        -0.01073
C         19.81121         1.30161        -0.20244
C         19.75211         4.12482        -0.21746
C         18.50834         6.36437        -0.09789
C         18.49993         7.75727        -0.18003
C         19.70847         5.58801        -0.42581
C         19.75629         8.48682        -0.25016
C         18.49760        10.62801        -0.16338
C         18.49495        12.05013        -0.13441
C         19.74586         9.91255        -0.14368
C         19.72387        12.77819         0.00177
C         18.46763        14.90539        -0.07326
C         18.50441        16.36722        -0.13272
C         19.70898        14.20342         0.09209
C         19.67205        17.11245         0.30445
C         18.38434        19.24437         0.94850
C         19.58348        18.47799         0.78236
C         20.98730         2.01397        -0.31104
C         20.98704         3.43546        -0.33855
C         22.22256         4.17968        -0.34444
C         21.04381         6.34384        -0.53235
C         20.99952         7.80117        -0.27918
C         22.26051         5.54028        -0.33117
C         22.19584         8.52886        -0.13518
C         20.97203        10.63098        -0.03914
C         20.96252        12.07900         0.05554
C         22.18467         9.90830        -0.01521
C         22.15032        12.83074         0.17577
C         20.91610        14.93562         0.26321
C         20.88386        16.38553         0.49142
C         22.12707        14.21525         0.28211
C         22.02595        17.04644         0.97890
C         20.76323        19.07245         1.31566
C         21.96693        18.39076         1.36407
O          3.30835         4.46580         2.40978
O          5.42481        12.97404        -1.94776
O         10.41952        14.52245        -1.95529
O          7.79893         5.81190        -2.12568
O          3.26716        17.04804        -1.20718
O         14.42747         3.76862        -1.55226
O          2.67223         7.61211        -1.82609
O         17.50955         4.88326         1.60164
O         20.28637         5.96694        -1.72609
O          7.13989        12.31907         1.18639
O          4.55856         6.77227         1.33999
O          4.64092         9.09039        -2.37510
O          2.18144        13.35051         1.13427
O          6.80806        10.49232        -2.46352
O         12.41742         8.95073        -1.67348
O         12.13967        13.58910         1.03255
O         15.20259         5.93328         1.52856
O         17.42207        18.32285        -1.00534
O         11.14509         2.22975        -1.36144
O         15.57207        16.63549         0.98160
O         11.23105        16.97115        -2.02523
H         10.72015        16.36681        -2.61203
O         11.97439        16.62726         1.51409
H         12.79852        16.74974         2.03007
O         13.32787         7.84380         1.71344
H         14.02171         7.24294         2.09212
O         14.95156        19.00014        -1.71695
H         15.89995        18.84022        -1.93387
O         10.66444         7.78059         1.35504
H         11.53666         7.73008         1.82419
O          4.65320        16.83742         2.19990
H          5.11112        15.98649         2.41970
O          6.56627         2.88521         2.74478
H          5.77916         3.42480         2.97980
O          6.11050        14.57278         1.84702
H          6.49272        13.63452         1.91473
O          9.42972         3.93856        -2.50493
H          9.71015         3.02142        -2.71778
O         16.13504        14.92424        -2.26421
H         16.13375        13.99575        -2.57972
H          0.53749         1.65206         1.40471
H          0.36704         4.04216         0.89864
H          2.72573         0.51821         1.62098
H          0.28584         6.03851         0.77585
H          0.15044         8.37838         0.12827
H          0.06946        10.16976        -0.94107
H          0.02757        12.57668        -0.46061
H          0.08456        14.62306        -0.19017
H          0.16185        17.05202        -0.17142
H          1.44108        19.16508         0.57382
H          5.17498         0.56287         1.41720
H          3.57844        20.33366         0.94891
H          7.73187         0.69850         1.52067
H          6.05005        20.34104         0.39385
H          9.94054         0.70091         1.39451
H          8.51736        20.30449         0.42908
H         12.58393         0.24090         0.91676
H         10.95431        20.28874         0.36905
H         14.89032         0.17594         0.19203
H         13.33967        20.35922         0.02298
H         17.33100         0.18631         0.02928
H         15.61830        19.82737         1.45085
H         19.82419         0.20262        -0.22143
H         18.40171        20.04193         1.70703
H         21.94585         1.48249        -0.39984
H         23.16110         3.61124        -0.26313
H         23.22430         6.04930        -0.19073
H         23.16132         8.00609        -0.14623
H         23.14395        10.43331         0.07541
H         23.12568        12.32718         0.19543
H         23.08544        14.74325         0.37198
H         22.97229        16.50503         1.10557
H         20.70841        20.10759         1.68231
H         22.86670        18.88677         1.75298
