         291
 CSIRO Nanostructure Databank - Neutral Graphene Oxide Data Set
C          1.64616         1.97963         0.45284
C          1.54996         3.43075         0.54945
C          2.67113         1.38764        -0.19346
C          2.59531         4.22048         0.20363
C          1.95934         6.39787        -0.89792
C          1.31605         7.68317        -0.47809
C          2.53896         5.70471         0.31070
C          2.22570         8.50231         0.10596
C          0.96585        10.70999         0.33589
C          1.11114        11.98691        -0.03701
C          2.15260         9.87463         0.66422
C          2.49085        12.61508        -0.14314
C          1.36356        14.76103        -1.04873
C          1.31316        16.11113        -1.21991
C          2.43013        14.12660        -0.30694
C          2.32047        16.98843        -0.51612
C          2.45572        18.39900        -1.02669
C          3.70311         2.24291        -0.89339
C          3.90629         3.56258        -0.13880
C          5.05166         1.58399        -1.06325
C          4.91647         4.41705        -0.86736
C          3.47292         6.52846        -0.57431
C          3.56731         7.98196        -0.24320
C          4.79161         5.91046        -1.10195
C          4.79804         8.78722        -0.16473
C          3.42846        10.58742         1.03781
C          3.34475        12.14045         1.08369
C          4.78621         9.84950         0.92857
C          4.71780        12.86578         1.12495
C          3.56083        14.88965        -0.00337
C          3.62617        16.25666        -0.37013
C          4.76946        14.26488         0.60530
C          4.87143        16.94839        -0.45742
C          3.63174        18.99010        -1.26718
C          4.91840        18.20634        -1.30514
C          6.17783         2.32412        -1.20226
C          6.09120         3.80558        -1.22155
C          7.48837         1.59773        -1.42861
C          7.31631         4.64087        -1.34116
C          5.99334         6.59393        -0.30136
C          6.11714         8.11732        -0.56019
C          7.33933         5.91499        -0.55346
C          7.32687         8.68653         0.13904
C          6.01855        10.68809         0.83366
C          6.04164        12.08453         1.38003
C          7.25097         9.99495         0.66209
C          7.26460        12.82360         0.88964
C          6.08257        14.83520         0.11156
C          6.05230        16.34674        -0.06179
C          7.27900        14.32947         0.96658
C          7.27627        17.20011         0.18743
C          6.19077        19.00248        -1.16400
C          7.34761        18.45995        -0.66513
C          8.62197         2.08435        -0.54300
C          8.45421         3.29260         0.29403
C          9.78832         1.38715        -0.43245
C          9.66292         4.18702         0.62901
C          8.50044         6.48404        -0.07383
C          8.64877         8.02891        -0.19228
C          9.74678         5.68820         0.16135
C          9.88913         8.72754         0.42745
C          8.46233        10.73186         0.91224
C          8.44514        12.10350         0.29946
C          9.73366        10.00249         1.31777
C          9.75631        12.78576         0.66041
C          8.55485        14.96566         0.42428
C          8.55885        16.40567         0.07795
C          9.82784        14.26586         0.74869
C          9.83023        17.18503         0.18360
C          8.62920        19.08924        -0.85972
C          9.84952        18.50880        -0.49340
C         10.95849         1.97994         0.17735
C         10.98128         3.49830         0.18322
C         12.14032         1.29941         0.29048
C         12.15573         4.07094         0.96422
C         10.99424         6.37755         0.69961
C         11.03302         7.85147         0.90608
C         12.14281         5.53752         1.27251
C         12.21554         8.48518         1.20667
C         10.97689        10.54998         0.54403
C         11.00713        12.05952         0.20043
C         12.29231         9.93373         0.99898
C         12.26334        12.76884         0.85937
C         11.12030        14.96579         0.54937
C         11.10874        16.44689         0.41679
C         12.28504        14.27084         0.57108
C         12.37910        17.10041         0.02668
C         11.10493        19.09965        -0.76909
C         12.34909        18.46166        -0.51230
C         13.38194         1.96856         0.61037
C         13.41765         3.30397         0.90458
C         14.65997         1.15727         0.64410
C         14.70644         3.88529         1.45010
C         13.43089         6.23247         1.67456
C         13.44047         7.73522         1.62921
C         14.73959         5.43178         1.65285
C         14.74815         8.49434         1.68360
C         13.48386        10.60815         0.96205
C         13.52226        12.00509         0.36148
C         14.75707         9.97976         1.42823
C         14.78988        12.78295         0.80145
C         13.58302        15.02513         0.80604
C         13.54942        16.43534         0.23856
C         14.77655        14.21978         0.21487
C         14.82556        17.16594         0.13306
C         13.56487        19.08970        -0.82933
C         14.83665        18.49799        -0.53597
C         15.83064         2.02554         0.23478
C         15.86509         3.33769         0.63081
C         16.83741         1.48564        -0.64905
C         16.99059         4.19462         0.18081
C         16.02199         6.21068         1.47077
C         16.05274         7.71892         1.61423
C         17.11699         5.61453         0.61606
C         17.34495         8.41018         1.28963
C         16.11582        10.71328         1.27455
C         16.05822        11.99443         0.40340
C         17.28654         9.83537         0.82744
C         17.36228        12.76480         0.53168
C         16.11583        14.91459         0.31439
C         16.12179        16.38248         0.20644
C         17.33538        14.21988         0.30732
C         17.30965        17.03742        -0.40301
C         16.03210        19.13015        -0.80102
C         17.36499        18.56309        -0.35642
C         17.96211         2.20248        -0.98740
C         18.26176         3.46516        -0.20934
C         18.87375         1.77494        -2.00491
C         19.26108         4.38627        -0.86396
C         18.44225         6.30842         0.45482
C         18.54423         7.64867         0.82862
C         19.45466         5.67779        -0.32498
C         19.80818         8.38008         0.71312
C         18.56070        10.58243         0.63086
C         18.53954        12.07728         0.60219
C         19.83520         9.86655         1.06472
C         19.85826        12.78001         0.33607
C         18.56958        14.90884         0.15976
C         18.60878        16.25369        -0.39194
C         19.83327        14.28820         0.69527
C         19.87126        17.01094        -0.46817
C         18.55112        19.08250        -1.19028
C         19.84909        18.36668        -0.84772
C         19.85163         2.61871        -2.48080
C         20.03396         3.93471        -1.95380
C         20.90162         4.88069        -2.62899
C         20.80080         6.32827        -0.63444
C         20.92548         7.77787        -0.16507
C         21.19822         6.07420        -2.06850
C         21.78308         8.73469        -0.83358
C         21.04884        10.61874         0.56000
C         21.10284        12.08014         0.95941
C         21.87305        10.06948        -0.40670
C         22.32952        12.83101         0.50272
C         21.09638        14.94598         0.17012
C         21.10119        16.33581        -0.19282
C         22.28576        14.15786         0.16256
C         22.30623        17.07889        -0.32671
C         21.06148        19.06233        -0.95510
C         22.27813        18.41566        -0.69615
O         17.86269         9.95774        -0.52366
O          8.31651         4.32084        -2.00871
O         11.83495         4.55777         2.30052
O         20.99084         7.76777         1.32376
O         16.97357         8.15385         2.67345
O         17.74493        16.41273        -1.62501
O          9.74549        13.42214         1.96030
O         10.54033         9.65401        -0.58995
O          4.65073        14.01553         2.02985
O          3.99050         8.94415        -1.34638
O         10.42266        17.15641         1.51963
O         15.61219        17.11325         1.38003
O         14.67256         9.44156         2.79038
O          7.41894         3.45394         0.95102
O          8.54932        15.40331        -0.99258
O         10.81542         6.09322        -0.74711
O         15.66764         5.65413         2.76677
O          2.58718         9.99063         2.07591
O         12.21032        12.61121         2.24706
O         16.56118         5.27201        -0.72082
O          9.54140         4.26632         2.05981
H          8.58086         4.19339         2.27271
O         14.78466        12.84744         2.22021
H         13.84508        12.70420         2.54718
O          6.11701        11.96857         2.84228
H          5.87366        12.86136         3.18850
O          8.88428         8.12825        -1.63540
H          9.73531         7.66513        -1.81638
O          3.18838         2.57017        -2.21327
H          3.12274         1.73985        -2.72838
O         20.05713        12.68014        -1.09805
H         19.32718        13.16019        -1.54350
O         13.70522        15.16721         2.23279
H         13.12147        14.49844         2.66135
O          6.19409        14.28832        -1.22173
H          7.09778        14.48674        -1.56844
O          2.16253         6.18425         1.58386
H          2.71513         5.73159         2.25326
O         15.98154        11.66798        -1.01115
H         16.76553        11.09011        -1.22159
O         18.27311        18.92824        -2.58647
H         18.12917        17.96759        -2.75185
O          1.79379        17.14957         0.85496
H          1.76796        16.25972         1.26934
O          3.17364        12.08907        -1.30501
H          2.68819        12.35585        -2.11267
O         11.20993         3.78387        -1.22079
H         10.34593         3.79319        -1.69297
O          4.95878         9.04227         2.14230
H          5.06353         9.66078         2.89929
O          7.11604        14.78786         2.32302
H          7.92617        14.53038         2.81664
O         13.23608         6.99957         2.89018
O         16.54567        11.13024         2.58123
H         16.08893        10.55727         3.24282
O         21.07717        12.19301         2.40396
H         20.51643        11.45215         2.75950
O          5.70957         6.40691         1.10242
H          5.57355         7.27830         1.54975
O         14.54113        14.17920        -1.21612
H         15.15139        13.51362        -1.60612
O         18.85398         3.04707         1.05988
H         19.69268         2.57992         0.86150
O          4.98461        17.68639        -2.68355
H          5.75269        17.07802        -2.73762
O          7.19970        17.63126         1.57310
H          6.34550        18.09091         1.71052
O          2.63273        12.51525         2.26290
H          2.30068        11.68213         2.67924
O          9.86029         9.78273         2.70642
H         10.09655        10.62787         3.14422
O         19.80406         9.89409         2.52573
H         20.42001         9.19108         2.83307
O          8.30876        12.02469        -1.14747
H          9.20845        11.87397        -1.53149
O          4.96183         6.12227        -2.50138
H          5.09947         7.09266        -2.64455
O         14.82398         3.29889         2.78004
H         15.38124         3.90862         3.32006
O         17.61237        18.95439         1.01217
H         16.88642        18.57123         1.56254
O          7.89829         1.73892        -2.79672
H          8.07316         2.70055        -2.94509
O          6.27708         8.34754        -1.97783
H          7.23986         8.29070        -2.19917
O         10.97373        12.24058        -1.21863
H         11.78887        11.83422        -1.60376
O         13.44994        11.84040        -1.06721
H         14.31203        11.47693        -1.38663
O          4.49938         3.27908         1.16159
H          5.48213         3.26730         1.08061
O         21.77493         5.57605         0.16264
H         21.70690         5.92645         1.08050
O         14.87009         0.64370         1.96714
H         14.88717         1.42411         2.57465
O         19.79903        14.48443         2.12881
H         20.35509        13.77782         2.55014
H          0.84601         1.37553         0.90584
H          0.61095         3.87423         0.91188
H          2.71967         0.29244        -0.29788
H          1.56183         5.80523        -1.73654
H          0.23065         7.84100        -0.52151
H         -0.03104        10.24740         0.40178
H          0.22038        12.59223        -0.26199
H          0.58447        14.13304        -1.50605
H          0.47523        16.57388        -1.76136
H          1.52647        18.98820        -1.06971
H          5.10877         0.48428        -1.11685
H          3.66667        20.04462        -1.58192
H          7.32660         0.50249        -1.25179
H          6.24725        19.94255        -1.73732
H          9.87911         0.39050        -0.89393
H          8.64456        20.04865        -1.40127
H         12.16578         0.21258         0.11750
H         11.12220        20.09928        -1.23085
H         14.57603         0.27924        -0.04569
H         13.54871        20.10041        -1.26414
H         16.64926         0.50660        -1.11636
H         16.02564        20.12000        -1.28133
H         18.71854         0.79141        -2.47240
H         18.67703        20.17636        -0.99764
H         20.48837         2.29832        -3.31802
H         21.27951         4.61998        -3.62891
H         21.85082         6.78235        -2.59711
H         22.34566         8.43174        -1.72553
H         22.62458        10.71384        -0.88790
H         23.29908        12.31164         0.51408
H         23.22702        14.63585        -0.14896
H         23.27161        16.60560        -0.10364
H         21.05404        20.12357        -1.24082
H         23.21933        18.97662        -0.77922
