         630
 CSIRO Nanostructure Databank - Neutral Graphene Oxide Data Set
C         23.05028        27.32698         1.71970
C         23.03472        28.67133         1.58105
C         22.99379        31.62530         1.40789
C         22.94717        32.98061         1.35398
C         22.96697        35.96003         1.18072
C         22.97299        37.34845         1.02051
C         22.96124        40.15282         0.17193
C         23.00003        41.43022        -0.27705
C         22.96120        44.39472        -0.72411
C         22.98644        45.74506        -0.83492
C         25.37258        24.52565         0.85482
C         24.26657        25.16071         1.31602
C         25.50550        27.32859         1.26871
C         24.33941        26.56646         1.84345
C         25.48792        28.76232         1.29357
C         24.25168        29.45334         1.47455
C         25.45671        31.59391         1.43211
C         24.23514        30.88137         1.48484
C         25.47893        33.04894         1.62494
C         24.13782        33.80220         1.61130
C         25.40487        35.94146         1.18959
C         24.16484        35.24976         1.28594
C         25.40819        37.36021         1.00808
C         24.16942        38.05602         0.93086
C         25.44046        40.20216         0.49383
C         24.13600        39.56657         0.90779
C         25.43185        41.57582         0.07891
C         24.21634        42.20380        -0.26197
C         25.52288        44.39495        -0.62974
C         24.20034        43.59713        -0.73663
C         25.45546        45.87105        -0.59146
C         24.21741        46.51125        -0.81660
C         25.34967        48.66339        -0.85526
C         24.18304        47.92118        -0.92219
C         27.91500        23.07984         0.49113
C         27.85892        24.50199         0.41460
C         26.63028        25.21583         0.67227
C         27.78466        27.40777         0.30615
C         26.62380        26.63510         0.78634
C         27.89812        28.82668         0.68213
C         26.69439        29.49403         1.08907
C         27.90526        31.64432         1.10360
C         26.69171        30.91927         1.20920
C         27.91630        33.06840         1.13730
C         26.70229        33.80281         1.32894
C         27.87531        35.95990         1.18258
C         26.66226        35.22648         1.24554
C         27.88499        37.37394         1.02726
C         26.65298        38.08323         0.92377
C         27.89881        40.22781         0.61465
C         26.64664        39.50591         0.68090
C         27.89880        41.63467         0.46439
C         26.67221        42.33157         0.12790
C         27.83192        44.54118         0.41771
C         26.68527        43.70377        -0.08181
C         27.89309        45.94155        -0.16125
C         26.64222        46.63184        -0.43059
C         27.83305        48.81643        -0.57973
C         26.60053        48.04503        -0.61619
C         27.91529        50.16606        -0.88305
C         30.33476        23.08592         0.15011
C         29.10647        22.40237         0.35793
C         30.31566        24.50963         0.08701
C         29.07758        25.19426         0.19668
C         30.33797        27.38937         0.06760
C         29.07139        26.65045         0.01273
C         30.32793        28.79600         0.21196
C         29.11484        29.49250         0.57486
C         30.34524        31.69595         0.52356
C         29.21554        30.89787         1.11909
C         30.35936        33.08893         0.66887
C         29.15116        33.76867         1.03089
C         30.43909        35.95423         1.22150
C         29.14152        35.21125         1.30378
C         30.38891        37.41735         1.00275
C         29.13845        38.09316         0.92600
C         30.36318        40.22497         0.69058
C         29.13130        39.50911         0.74315
C         30.33209        41.64212         0.63338
C         29.12821        42.36669         0.53369
C         30.33185        44.53882         0.35729
C         29.15151        43.81069         0.40045
C         30.36750        45.94587        -0.00560
C         29.08894        46.62463        -0.19220
C         30.38852        48.82291        -0.49585
C         29.07924        48.10087        -0.27268
C         30.37426        50.20100        -1.01445
C         29.15220        50.84305        -1.08678
C         32.82379        20.25936        -0.07456
C         31.63524        20.95387         0.04556
C         32.74893        23.10006        -0.36443
C         31.57518        22.38253        -0.06398
C         32.74959        24.53156        -0.35250
C         31.54099        25.23980        -0.11651
C         32.77993        27.39718        -0.22980
C         31.55518        26.67718        -0.08954
C         32.76847        28.83054        -0.18894
C         31.55344        29.50763         0.03787
C         32.78475        31.74950        -0.27946
C         31.48794        30.98078        -0.04942
C         32.80544        33.17716         0.11574
C         31.60367        33.83483         0.49469
C         32.86647        35.92645         0.72383
C         31.65927        35.22172         0.79174
C         32.89567        37.35996         1.20572
C         31.60519        38.10370         0.93128
C         32.85845        40.19663         0.69965
C         31.61863        39.51558         0.79240
C         32.83467        41.63332         0.41609
C         31.59665        42.37681         0.76526
C         32.88683        44.56855         0.35883
C         31.61549        43.87547         0.63534
C         32.86587        45.96204        -0.00169
C         31.57726        46.59701        -0.23898
C         32.87025        48.76677        -0.47268
C         31.59781        47.98280        -0.84620
C         32.87859        50.15981        -1.06859
C         31.66068        50.82632        -1.33480
C         32.93066        52.79575        -1.99442
C         31.71977        52.14363        -1.84994
C         35.33782        18.80242        -0.37176
C         35.27469        20.22405        -0.49037
C         34.02656        20.90374        -0.42916
C         35.25527        23.07259        -0.74398
C         33.95062        22.33573        -0.87881
C         35.18019        24.52631        -0.95167
C         33.95875        25.27121        -0.58198
C         35.24776        27.41249        -0.56508
C         33.99355        26.67460        -0.48320
C         35.24779        28.84151        -0.42447
C         34.02173        29.56394        -0.31259
C         35.27752        31.69039        -0.33908
C         34.05173        30.98163        -0.29627
C         35.23925        33.19806        -0.51889
C         34.02122        33.87406         0.06559
C         35.32509        35.97591         0.36470
C         34.07065        35.25803         0.37651
C         35.33645        37.38744         0.55981
C         34.13171        38.10052         0.76637
C         35.34412        40.24972         0.59683
C         34.11036        39.51361         0.68170
C         35.36655        41.67299         0.51222
C         34.11195        42.40000         0.28452
C         35.34418        44.55232         0.41051
C         34.10618        43.87277         0.40881
C         35.31953        46.05740         0.48231
C         34.07583        46.64005        -0.13593
C         35.38937        48.76892        -0.58979
C         34.13178        47.97165        -0.83625
C         35.38149        50.13441        -0.91441
C         34.12543        50.81823        -1.21924
C         35.41346        52.89875        -1.69142
C         34.15295        52.17163        -1.64923
C         35.45683        54.25735        -2.05359
C         37.76675        18.82721        -0.57364
C         36.53142        18.13067        -0.43922
C         37.74030        20.25548        -0.64841
C         36.50155        20.94910        -0.64843
C         37.72903        23.12964        -0.81875
C         36.46803        22.39886        -0.75344
C         37.73612        24.53754        -0.86514
C         36.48742        25.29504        -1.01688
C         37.71649        27.43522        -0.68988
C         36.46909        26.73729        -0.72356
C         37.71394        28.84732        -0.58908
C         36.49227        29.55293        -0.46726
C         37.76704        31.69995        -0.43316
C         36.49675        30.99264        -0.42085
C         37.75794        33.17683        -0.45513
C         36.52677        33.90020        -0.16076
C         37.81401        35.98669         0.25442
C         36.55425        35.27082         0.12359
C         37.81434        37.40546         0.46819
C         36.58042        38.10853         0.52941
C         37.81235        40.22708         0.74712
C         36.58287        39.52794         0.62983
C         37.78045        41.68249         0.95701
C         36.54633        42.41470         0.64932
C         37.81727        44.56868         0.46936
C         36.56751        43.84658         0.52428
C         37.81279        45.98181         0.15789
C         36.60568        46.69644         0.02656
C         37.84622        48.77245        -0.47186
C         36.60576        48.07457        -0.33644
C         37.84920        50.16232        -0.77686
C         36.61910        50.85168        -0.98651
C         37.86360        52.97118        -1.34309
C         36.63173        52.24466        -1.33773
C         37.85390        54.35946        -1.65091
C         36.64916        54.97225        -2.02273
C         40.28650        16.03539        -0.60725
C         39.08041        16.69721        -0.59979
C         40.24014        18.85914        -0.63527
C         39.01490        18.12132        -0.60985
C         40.21908        20.29081        -0.71178
C         38.98620        20.98495        -0.73280
C         40.20015        23.13706        -0.91979
C         38.96483        22.41250        -0.81318
C         40.17643        24.55287        -0.89173
C         38.96093        25.27190        -0.82947
C         40.19968        27.41454        -0.57367
C         38.95135        26.70863        -0.77917
C         40.22641        28.83391        -0.41308
C         39.00397        29.58912        -0.85122
C         40.23920        31.69791        -0.13514
C         38.97993        31.03426        -0.43695
C         40.28102        33.11452         0.06301
C         39.08833        33.90248        -0.23137
C         40.27957        35.97953         0.38713
C         39.04425        35.31065         0.18425
C         40.28917        37.40642         0.51672
C         39.04582        38.11704         0.55990
C         40.29463        40.26586         0.70017
C         39.04459        39.53975         0.70835
C         40.31567        41.67819         0.69097
C         39.08548        42.45100         0.92402
C         40.28660        44.56041         0.42524
C         39.05697        43.88945         0.58399
C         40.29837        45.97435         0.15642
C         39.06163        46.66826        -0.02065
C         40.31786        48.74903        -0.46095
C         39.07614        48.06262        -0.30674
C         40.33240        50.14484        -0.77007
C         39.10019        50.85951        -0.89949
C         40.35921        52.93072        -1.23706
C         39.10799        52.26377        -1.12089
C         40.39962        54.40695        -1.30474
C         39.09464        55.16396        -1.51305
C         40.40167        57.15740        -2.16378
C         39.20410        56.52760        -2.06467
C         42.77685        16.07645        -0.60243
C         41.51314        16.76067        -0.58324
C         42.74853        18.93973        -0.35431
C         41.47737        18.16573        -0.58718
C         42.68905        20.32622        -0.91812
C         41.47022        21.00650        -0.90286
C         42.68962        23.15521        -1.08374
C         41.43753        22.43392        -1.03737
C         42.69930        24.55658        -0.91064
C         41.43410        25.33196        -1.11587
C         42.62403        27.35758        -0.07007
C         41.39403        26.69307        -0.48952
C         42.65052        28.81209         0.06411
C         41.42408        29.52175        -0.09808
C         42.59380        31.58237         0.75720
C         41.40557        30.94755         0.07773
C         42.69725        33.07402         0.55057
C         41.48785        33.79784         0.37393
C         42.74109        35.92085         0.51941
C         41.50496        35.24020         0.41538
C         42.75863        37.36999         0.50729
C         41.51636        38.10422         0.53597
C         42.74109        40.24917         0.47120
C         41.52846        39.54398         0.56534
C         42.75573        41.66923         0.51015
C         41.52615        42.39211         0.53863
C         42.76253        44.51083         0.41072
C         41.53758        43.82939         0.47796
C         42.78477        46.00842         0.55872
C         41.52384        46.67496         0.07265
C         42.80133        48.73069        -0.42925
C         41.54534        48.04622        -0.26624
C         42.82337        50.09205        -0.80824
C         41.57951        50.81362        -0.96740
C         42.82073        52.90466        -1.58892
C         41.56252        52.20789        -1.24365
C         42.87155        54.37370        -1.65088
C         41.66341        55.09408        -1.63827
C         42.89607        57.12661        -2.14432
C         41.65792        56.47644        -1.93045
C         43.96936        16.76417        -0.66385
C         45.23229        18.90803        -0.71975
C         44.02043        18.18419        -0.65799
C         45.22803        20.32715        -0.96487
C         43.93954        20.97934        -1.44278
C         45.12351        23.19591        -1.32601
C         43.92489        22.47293        -1.22226
C         45.12622        24.58977        -1.08209
C         43.91515        25.24643        -0.81069
C         45.18891        27.41531        -0.30910
C         43.94615        26.62352        -0.26522
C         45.17393        28.76688         0.11331
C         43.90317        29.48413         0.28377
C         45.12545        31.57156         0.88144
C         43.89016        30.85846         0.52047
C         45.17338        33.04225         0.81506
C         43.93218        33.75071         0.65817
C         45.21790        35.85402         0.60297
C         43.96230        35.18598         0.59468
C         45.22690        37.29832         0.32630
C         43.96832        38.04293         0.40438
C         45.22052        40.16686         0.81681
C         44.01978        39.52309         0.13977
C         45.20943        41.68018         0.92597
C         43.98004        42.39757         0.56245
C         45.26368        44.50342         0.47327
C         43.99737        43.79981         0.47836
C         45.28805        45.90399         0.19454
C         44.05313        46.64510         0.05228
C         45.29544        48.67327        -0.63546
C         44.03294        47.98171        -0.31623
C         45.30286        50.14465        -0.67928
C         44.08649        50.78127        -0.91191
C         45.36141        52.95000        -1.23151
C         44.12723        52.16683        -1.39942
C         45.36237        54.31851        -1.55513
C         44.11849        55.03672        -1.80099
C         44.09146        56.43545        -2.04453
C         47.67426        18.98005        -0.57326
C         46.50600        18.26924        -0.55575
C         47.69393        20.39951        -0.78927
C         46.41792        21.03904        -1.01509
C         47.68215        23.22234        -1.56405
C         46.40088        22.45434        -1.47901
C         47.63572        24.72819        -1.57746
C         46.34473        25.41549        -1.23967
C         47.63958        27.44583        -0.52176
C         46.39613        26.78563        -0.67746
C         47.65041        28.79694        -0.05574
C         46.41767        29.43622         0.23781
C         47.68834        31.58828         0.69984
C         46.44273        30.80956         0.75960
C         47.64879        32.95899         0.93862
C         46.40873        33.71166         0.91169
C         47.66231        35.89872         0.95172
C         46.43292        35.16237         0.81167
C         47.73239        37.29669         0.88533
C         46.55131        38.05695         0.47022
C         47.68583        40.19372         1.07411
C         46.52333        39.49973         0.76196
C         47.68339        41.64846         1.06535
C         46.49267        42.37593         0.89412
C         47.73603        44.47061         0.60170
C         46.49254        43.78834         0.64650
C         47.76076        45.88175         0.33556
C         46.53665        46.56118         0.09160
C         47.81479        48.73912        -0.10930
C         46.60155        47.95183        -0.37009
C         47.78040        50.17539        -0.23676
C         46.54131        50.87451        -0.57163
C         47.71037        53.10169        -0.43774
C         46.52727        52.27772        -0.74399
C         47.73876        54.46148        -0.98997
C         46.62127        55.02465        -1.51564
C         50.17842        20.49776        -0.72602
C         48.90561        21.12715        -0.82670
C         50.18710        23.28709        -1.27102
C         48.88765        22.63920        -0.84117
C         50.13344        24.73238        -1.74437
C         48.88957        25.44686        -1.27528
C         50.17471        27.36727        -0.43863
C         48.88188        26.72924        -0.80026
C         50.18559        28.78856         0.05010
C         48.89544        29.52130         0.16028
C         50.22578        31.49985         0.95315
C         48.91835        30.85825         0.52131
C         50.20758        33.01092         0.94548
C         48.91922        33.66244         1.22701
C         50.17772        35.88869         1.18187
C         48.89831        35.17321         1.29031
C         50.14169        37.29740         1.32558
C         48.93321        38.02155         1.22087
C         50.11477        40.19931         1.48658
C         48.93585        39.47445         1.26915
C         50.14545        41.63748         1.32667
C         48.93400        42.34732         1.07466
C         50.20656        44.42204         0.76123
C         48.95793        43.75388         0.83560
C         50.29689        45.85581         0.27198
C         48.98399        46.59955         0.29432
C         50.24711        48.73587         0.36259
C         48.99832        48.02109         0.19335
C         50.20065        50.19543         0.33709
C         48.96606        50.89510        -0.02966
C         50.31907        52.99900        -0.36334
C         49.01754        52.36435        -0.05558
C         51.35555        21.18987        -0.88694
C         52.64474        23.25227        -1.65065
C         51.36639        22.58779        -1.24650
C         52.66262        24.75597        -1.78539
C         51.41449        25.47669        -1.44306
C         52.68215        27.48716        -0.77426
C         51.43056        26.74791        -0.94149
C         52.66291        28.87435        -0.42582
C         51.44149        29.56955        -0.07512
C         52.63649        31.71089         0.22091
C         51.44813        30.91807         0.27771
C         52.65013        33.06431         0.59070
C         51.39212        33.73720         0.91515
C         52.64040        35.89902         1.14600
C         51.39502        35.18221         1.09226
C         52.67156        37.29588         1.44085
C         51.39150        37.97093         1.69179
C         52.65811        40.19080         1.70924
C         51.36981        39.49359         1.81644
C         52.56369        41.65692         2.03983
C         51.36807        42.35117         1.39193
C         52.70162        44.39663         0.72778
C         51.38902        43.72641         1.05928
C         52.71794        45.90642         0.84016
C         51.40476        46.62267         1.01493
C         52.70391        48.77190         0.46815
C         51.45755        48.08787         0.61747
C         52.76223        50.11431         0.08306
C         51.56534        50.95070         0.19497
C         51.48394        52.32231        -0.34534
C         55.10255        23.27230        -1.31774
C         53.93547        22.57677        -1.41632
C         55.18515        24.70084        -1.36824
C         53.97743        25.52618        -1.77326
C         55.13250        27.51543        -0.80543
C         53.90812        26.84747        -1.03932
C         55.09887        28.90031        -0.49937
C         53.88292        29.59411        -0.40360
C         55.15174        31.78711        -0.11079
C         53.84449        31.10782        -0.44900
C         55.14535        33.18149         0.29062
C         53.88346        33.81872         0.63831
C         55.10882        35.88998         1.35260
C         53.86465        35.18002         1.00255
C         55.12960        37.36444         1.44026
C         53.87885        38.04482         1.51797
C         55.13343        40.20873         1.72412
C         53.86149        39.49462         1.67635
C         55.15751        41.63578         1.81425
C         53.88690        42.39456         1.90770
C         55.18537        44.46172         1.11442
C         53.89995        43.81128         1.43050
C         55.17164        45.80704         0.73823
C         53.90811        46.54847         0.71964
C         55.10002        48.44409        -0.34882
C         54.02645        48.05606         0.68934
C         55.12628        49.93753        -0.56267
C         54.01621        50.68355        -0.38086
C         57.66899        24.70438        -1.26780
C         56.40141        25.38265        -1.20297
C         57.61768        27.48474        -0.84642
C         56.40076        26.81341        -0.97124
C         57.66772        28.89772        -0.42338
C         56.35894        29.62121        -0.23935
C         57.61148        31.80198        -0.42282
C         56.33467        31.09932        -0.26699
C         57.60269        33.31276        -0.10387
C         56.35330        33.86754         0.42165
C         57.66105        35.97518         0.99462
C         56.42792        35.16895         1.09490
C         57.62068        37.36141         1.30245
C         56.35765        38.05895         1.48350
C         57.60074        40.21483         1.65281
C         56.35718        39.49601         1.61612
C         57.61322        41.64032         1.72163
C         56.36433        42.35015         1.71766
C         57.60560        44.48199         1.35936
C         56.39189        43.78188         1.43973
C         57.62603        45.81526         0.86390
C         56.40999        46.48959         0.54025
C         57.66129        48.46126        -0.12398
C         56.43529        47.83094         0.05213
C         58.85021        25.39161        -1.25057
C         60.06184        27.54541        -1.08358
C         58.86686        26.81280        -1.06431
C         60.08005        28.94280        -0.90868
C         58.92495        29.65758        -0.60306
C         60.06521        31.84016        -0.27464
C         58.90565        31.08869        -0.41407
C         60.05542        33.22004         0.04910
C         58.89031        33.94585         0.22979
C         60.08049        36.07428         0.74210
C         58.88032        35.33297         0.66858
C         60.05952        37.41055         1.09240
C         58.84645        38.08444         1.34980
C         60.03926        40.23573         1.72126
C         58.84236        39.51535         1.59302
C         60.03794        41.62683         1.83391
C         58.84678        42.34799         1.78628
C         60.11247        44.53581         1.45316
C         58.85231        43.85839         1.94002
C         60.10640        45.77485         0.92208
C         58.87035        46.49328         0.65847
C         58.86946        47.79734         0.17196
O         33.36486        41.95906        -0.92601
O         46.04679        37.68153        -0.87085
O         35.74408        24.94959        -2.25174
O         44.97577        40.80236         2.10143
O         53.85732        43.52643         2.86585
O         52.55390        23.90401        -2.98999
O         50.88802        50.81252         1.47684
O         43.31511        26.65465         1.05671
O         31.66736        43.20315         1.97088
O         50.27653        27.66312         1.00456
O         57.53228        32.82246        -1.48064
O         55.83768        35.20795         2.43802
O         45.77069        30.97568         2.06297
O         38.43661        42.12934         2.20306
O         31.88368        31.47158        -1.39209
O         29.93291        35.55744         2.54523
O         28.17535        27.10542        -1.07128
O         51.29411        38.63023         3.00003
O         46.84416        25.33607        -2.63387
O         39.69442        55.03538        -0.17629
O         29.87465        48.67850         0.85739
O         46.06420        48.10026        -1.75278
O         24.80918        33.49107         2.86583
O         48.18824        53.02313         0.95206
O         57.08539        29.10248         0.93602
O         47.16534        22.58584        -2.75085
O         48.84098        34.36482         2.52407
O         38.53959        33.71040        -1.58835
O         25.05111        43.83782        -1.90535
O         43.51356        52.29243        -2.73822
O         54.53588        48.50121         1.97493
H         53.81900        48.42361         2.63763
O         44.23164        39.69376        -1.30140
H         44.92026        39.03068        -1.56144
O         50.72281        45.80103        -1.13466
H         49.96516        45.47479        -1.66543
O         24.59138        26.43764         3.29889
H         25.42935        25.93796         3.40093
O         35.23490        46.39554         1.92484
H         34.36522        46.07826         2.25096
O         41.46625        25.64319        -2.57578
H         40.59318        26.02721        -2.81182
O         39.12523        29.63632        -2.33408
H         38.42471        30.24045        -2.66390
O         31.54605        47.82194        -2.30072
H         30.86707        47.14669        -2.51132
O         54.70509        47.83180        -1.60674
H         55.40594        48.00990        -2.26737
O         35.12837        33.37587        -1.97923
H         35.21728        34.33340        -2.17203
O         43.92105        20.77414        -2.90198
H         44.66748        21.28774        -3.28103
O         51.04783        46.56534         2.42264
H         51.72719        47.04839         2.93677
O         54.23235        25.91210        -3.16497
H         53.93566        25.15190        -3.71682
O         42.32723        31.40733         2.21091
H         43.18323        31.51187         2.68164
O         58.80195        44.10150         3.38937
H         58.69271        45.06707         3.52074
O         42.79983        19.13122         1.12568
H         42.73844        18.23897         1.53016
O         52.22362        41.65613         3.46164
H         52.56826        42.50210         3.83211
O         32.88842        48.89911         0.96532
H         32.01457        49.23383         1.26303
O         34.19003        47.69865        -2.26433
H         33.26776        47.55787        -2.59179
O         52.92312        44.09189        -0.68769
H         52.27825        44.64940        -1.19086
O         23.95421        39.95454         2.32619
H         23.99875        40.93383         2.36593
O         29.56988        30.72462         2.55837
H         29.49934        31.60793         2.98144
O         42.80958        46.25141         2.02218
H         42.01035        45.82771         2.40288
O         53.64973        31.42299        -1.88309
H         54.45482        31.13516        -2.36447
O         49.98991        24.68133        -3.19531
H         50.82329        24.28058        -3.54612
O         32.99617        37.28085         2.67640
H         32.18667        36.82930         3.00202
O         48.66278        23.07515         0.55180
H         49.39605        22.72066         1.09856
O         50.34303        31.13792         2.37350
H         51.05913        31.67939         2.76788
O         33.74584        22.26530        -2.35139
H         33.96004        23.15098        -2.71920
O         27.53092        44.76862         1.84767
H         28.31630        45.19950         2.24912
H         22.10742        26.76958         1.82475
H         22.06556        29.18912         1.55910
H         22.05756        31.06964         1.26187
H         21.99323        33.47576         1.12421
H         22.00380        35.44259         1.28123
H         22.01037        37.87565         1.00714
H         22.02252        39.58714         0.09823
H         22.10230        41.86795        -0.73717
H         21.99634        43.87815        -0.61785
H         22.04087        46.30705        -0.86277
H         25.29802        23.46880         0.56126
H         23.31864        24.61289         1.42463
H         25.29450        49.75365        -0.97577
H         23.21968        48.42480        -1.08604
H         26.99644        22.50321         0.66217
H         26.99698        50.74064        -1.06766
H         29.08872        21.30604         0.40885
H         29.10168        51.89629        -1.39646
H         32.81743        19.18244         0.14286
H         30.73173        20.39093         0.31173
H         32.92235        53.82675        -2.37117
H         30.79432        52.67235        -2.11523
H         34.41256        18.22153        -0.26576
H         34.54084        54.78959        -2.33963
H         36.52214        17.03515        -0.37211
H         36.62778        56.04103        -2.27369
H         40.31546        14.93643        -0.61944
H         38.15637        16.10445        -0.60224
H         40.44346        58.19489        -2.52782
H         38.29226        57.05574        -2.37712
H         42.77764        14.97733        -0.62778
H         42.90394        58.20093        -2.37821
H         44.90026        16.19006        -0.77413
H         45.02909        56.98973        -2.18259
H         48.61661        18.44136        -0.40762
H         46.54786        17.18728        -0.37021
H         48.65474        55.06014        -0.89575
H         46.67253        56.06054        -1.87633
H         50.23875        19.41390        -0.55715
H         50.32147        54.05241        -0.67689
H         52.30282        20.64093        -0.81471
H         52.40491        52.82462        -0.67487
H         56.02066        22.70215        -1.11560
H         53.95865        21.48361        -1.31579
H         56.03303        50.41468        -0.96297
H         54.05406        51.76120        -0.59649
H         57.69124        23.61677        -1.41899
H         57.71386        49.49027        -0.50597
H         59.80522        24.86063        -1.37320
H         61.00786        27.01894        -1.27453
H         61.03877        29.46878        -1.01691
H         61.04247        31.33948        -0.31488
H         61.02854        33.69158         0.24179
H         61.04209        35.59988         0.50842
H         61.01273        37.95250         1.12808
H         61.00616        39.71723         1.73846
H         61.00064        42.14153         1.94907
H         61.07858        44.05261         1.65786
H         61.05442        46.26969         0.66011
H         59.82455        48.31673         0.00737
