         276
 CSIRO Nanostructure Databank - Neutral Graphene Oxide Data Set
C        -11.32915         0.65892        -0.50062
C        -10.39483         1.70755        -0.09719
C         -8.50702         0.64701         0.53706
C         -7.43620         1.49790        -0.09370
C         -6.09069         0.82544        -0.07235
C         -4.90210         1.59759         0.47100
C         -3.67585         0.81068         0.81401
C         -2.52202         1.49354         1.50312
C         -1.23244         0.69342         1.60314
C          0.08106         1.40769         1.39923
C          1.38918         0.65652         1.63172
C          2.63936         1.39870         1.24705
C          3.80815         0.62351         0.69291
C          5.02194         1.34993         0.18560
C          6.35545         0.69977         0.40797
C          7.62572         1.45088         0.20868
C          8.94043         0.70348         0.15130
C         10.03144         1.42260        -0.60731
C         11.32957         0.64268        -0.58344
C        -10.07793         2.91859        -0.61345
C         -8.92804         3.72900         0.00755
C         -7.56806         2.98313        -0.12796
C         -6.39289         3.72010         0.48750
C         -5.14456         3.00722         0.96550
C         -3.93563         3.82278         1.52698
C         -2.55737         3.00414         1.49865
C         -1.27478         3.65799         1.02943
C          0.05135         2.89987         1.17097
C          1.33606         3.69444         1.24652
C          2.61909         2.92326         1.09707
C          3.74971         3.59436         0.36919
C          4.99930         2.85267        -0.00561
C          6.30534         3.61716        -0.20371
C          7.61014         2.88393        -0.23472
C          8.91331         3.60878        -0.13815
C         10.06584         2.90013        -0.24537
C         -8.76411         5.06383        -0.74824
C         -7.52676         5.86513        -0.34159
C         -6.43049         5.22962         0.44613
C         -5.14821         5.99763         0.68570
C         -3.84471         5.27474         0.99539
C         -2.54065         5.90173         0.61041
C         -1.27270         5.09038         0.58920
C         -0.01332         5.90713         0.77684
C          1.27940         5.19759         1.03823
C          2.62373         5.94178         0.94081
C          3.76656         5.10446         0.34567
C          5.06504         5.81343         0.16438
C          6.37158         5.02689         0.42534
C          7.60412         5.84504         0.04882
C          8.89626         5.12202        -0.31673
C         -7.44360         7.15606        -0.74134
C         -6.26113         8.01387        -0.52110
C         -5.06564         7.42179         0.18922
C         -3.75802         7.94694        -0.33734
C         -2.51735         7.13058        -0.26336
C         -1.14619         7.72257        -0.67416
C         -0.05809         7.41035         0.44794
C          1.25587         7.93823        -0.12399
C          2.53561         7.20975         0.09956
C          3.83131         7.96240        -0.08643
C          5.07922         7.28965         0.42114
C          6.37851         8.01604         0.36439
C          7.59172         7.20018         0.08351
C         -6.01126         9.12249        -1.48581
C         -4.83873         9.77635        -1.56269
C         -3.70468         9.44778        -0.60851
C         -2.33421         9.93658        -1.01514
C         -1.17895         9.24032        -0.87675
C          0.10649         9.94161        -0.91749
C          1.27524         9.37914        -0.51233
C          2.54438        10.21629        -0.35905
C          3.85289         9.43231        -0.35246
C          5.15050        10.13503        -0.11553
C          6.31181         9.48020         0.09390
C        -11.15951        -0.68145        -0.28984
C         -9.95465        -1.44900         0.04684
C         -8.62386        -0.78083         0.17545
C         -7.45651        -1.35249        -0.63264
C         -6.11047        -0.67198        -0.21421
C         -5.09598        -1.36914         0.70124
C         -3.70554        -0.70451         0.62589
C         -2.49365        -1.50125         0.99462
C         -1.25828        -0.79992         1.49903
C          0.04850        -1.57625         1.44439
C          1.36523        -0.86038         1.55870
C          2.68018        -1.60647         1.29187
C          4.00557        -0.80948         1.21446
C          5.07093        -1.50321         0.35055
C          6.39621        -0.78407         0.20624
C          7.69347        -1.52423         0.12903
C          8.98815        -0.77915         0.30264
C         10.29359        -1.60994         0.04513
C         11.39770        -0.69542        -0.46863
C         -9.96533        -2.81359        -0.01710
C         -8.71603        -3.61258        -0.15935
C         -7.44526        -2.89242        -0.49267
C         -6.07995        -3.57317        -0.39079
C         -5.09281        -2.91413         0.57760
C         -3.86355        -3.69914         0.91941
C         -2.55984        -2.99623         1.20650
C         -1.27011        -3.73825         0.98128
C         -0.00502        -2.93169         0.78641
C          1.27127        -3.64252         0.46086
C          2.59938        -3.03315         0.82939
C          3.78906        -3.74718         0.25632
C          5.06780        -2.97414         0.11905
C          6.36616        -3.73698         0.17689
C          7.67992        -3.02857         0.23860
C          8.97582        -3.81671        -0.17884
C          9.90428        -2.79177        -0.77942
C         -8.65882        -5.05704         0.19727
C         -7.52418        -5.77717         0.02213
C         -6.20901        -5.11218        -0.18754
C         -5.02918        -5.91154         0.29027
C         -3.77760        -5.23382         0.84642
C         -2.58470        -5.82484         0.11631
C         -1.30548        -5.09509         0.31118
C         -0.03744        -5.87798         0.15244
C          1.25623        -5.13974         0.22115
C          2.49138        -5.96384         0.46631
C          3.77757        -5.23585         0.20108
C          5.07128        -5.98835         0.13156
C          6.34642        -5.23197        -0.04507
C          7.46003        -5.86334        -0.81151
C          8.63023        -4.95401        -1.19178
C         -7.55686        -7.28197        -0.20907
C         -6.38886        -8.16692         0.33969
C         -5.08858        -7.38828         0.61251
C         -3.77288        -8.10109         0.45321
C         -2.65604        -7.32710        -0.28974
C         -1.25214        -8.04224        -0.33464
C         -0.09222        -7.39942         0.42986
C          1.10157        -8.05933        -0.29391
C          2.42207        -7.41768         0.11781
C          3.68883        -8.13139        -0.27980
C          4.98747        -7.40395        -0.35619
C          5.99800        -7.85919        -1.40477
C          7.33086        -7.11783        -1.30906
C         -6.10920        -9.28796        -0.66406
C         -4.94063        -9.93734        -0.73894
C         -3.84657        -9.62079         0.26092
C         -2.49595       -10.23488         0.01390
C         -1.30499        -9.54129        -0.05764
C         -0.06339       -10.24488        -0.04735
C          1.17563        -9.57291        -0.22411
C          2.35688       -10.19596        -0.60126
C          3.51245        -9.37645        -1.13847
C          4.85992       -10.07321        -1.26758
C          6.00660        -9.37862        -1.39427
O         -4.27342        -7.75327         1.76555
O         -9.63420         1.33314         1.03605
O         -1.33922         4.04686        -0.39974
O         -5.30491        -5.76650        -1.13812
O          0.72543        -1.48155         2.71773
O          1.79149         7.03590        -1.13695
O          7.02579        -1.08188        -1.08861
O          2.79631        -2.72594         2.23137
O          6.92120         3.29065        -1.47948
O          7.02889         1.27658         1.55016
O         -4.96045        -3.46958         1.90993
O          4.69501        -8.31766         0.74737
O          4.09269         0.69137        -0.72408
O          9.22454         0.07769         1.44405
O         -2.80612        -1.17771        -0.40362
O          5.99996        -5.87592         1.23971
O          0.12814         1.95172         0.04506
O          2.24315         3.50328         2.38119
O         -2.57226         2.24840         2.74200
O          6.37089         4.79671         1.80092
O         -3.80592         1.51672        -0.47689
O         -2.06642        -5.00585        -0.95186
O         -7.57266         2.22672        -1.37312
O         -3.06633         6.10832         1.95072
O          4.25412         5.52813        -0.97722
O         -6.13832         5.84249         1.73481
O         -0.70035         7.07428        -1.79389
O          0.66338        -5.48586        -1.05848
O         -5.65078         0.14932        -1.30137
O          7.08124        -3.47927         1.46479
O          4.75069        -2.02594        -0.96045
O         -1.81124        -3.56030         2.31865
O          2.33934         1.06925         2.64653
O         -1.36633        -0.14153         2.78984
O          0.73061        -7.81913        -1.69828
O         -8.21295        -3.48599        -1.57455
O         -5.92934         8.35123         0.88644
O          0.46930         5.74040         2.14842
O         -0.76373        -7.91274        -1.72937
O          2.42537        -6.95566         1.52149
O          5.68342         7.70794         1.65431
O          3.54043        -4.43518        -1.00818
O          0.53256        -2.91151        -0.56255
O         -6.28101         3.15202         1.84146
O         -8.11456        -0.35114         1.49435
O         -3.37750         7.06051        -1.44230
O          3.95747         3.12558        -0.99016
O          3.97454         8.47203        -1.44674
O          4.56600        -0.74418         2.52958
H          3.89521        -0.35745         3.13721
O         -0.42765         8.12360         1.61321
H         -0.24462         7.56137         2.40092
O         -3.95811        10.14413         0.63876
H         -4.81448         9.80061         0.99816
O          9.57549         1.36461        -1.99519
H         10.06767         2.03543        -2.51331
O         -3.15062        -7.34417        -1.63961
H         -2.64694        -6.67077        -2.15116
O         -0.17360        -7.67194         1.81735
H          0.70304        -7.47128         2.22475
O         -5.45899        -3.33794        -1.66649
H         -6.10788        -3.58134        -2.36281
O         -4.24280         3.97132         2.91053
H         -3.75999         4.75156         3.25881
O         -9.20402         4.04304         1.37219
H         -9.35410         3.19975         1.85573
O          9.52056        -4.40892         0.99658
H          8.81876        -4.43745         1.68649
O         -3.55273        -5.57816         2.22409
H         -4.23264        -5.13574         2.77614
O         -5.56560        -1.04090         2.02452
H         -5.37200        -1.80011         2.62383
O         -7.60094        -7.39868        -1.64082
H         -6.81860        -6.92089        -1.99963
O         -6.83480        -8.75882         1.57000
H         -6.11027        -9.35963         1.86934
O          3.13235        -8.89444        -2.46736
H          2.72599        -9.63106        -2.97057
O          8.26590        -4.30175        -2.41294
H          7.91743        -4.96571        -3.04367
O         -4.29544       -10.21902         1.51422
H         -3.82723        -9.75901         2.24567
O         -9.93555         5.85132        -0.55326
H        -10.11326         5.85424         0.41246
O          3.00540         6.33493         2.26496
H          2.95682         5.54799         2.85238
O          5.49387        -7.42725        -2.70016
H          4.64153        -7.90180        -2.87662
O         10.71932        -2.05903         1.33959
H         10.66339        -1.29097         1.95087
O          2.48032        10.91184         0.89435
H          1.60523        11.34438         0.97105
O          9.12846         5.34130        -1.72424
H          8.39195         4.90659        -2.20958
O         -7.71045        -1.04670        -2.00416
H         -6.98412        -0.45741        -2.32545
H         12.38277        -1.17929        -0.56555
H         12.24378         1.19493        -0.85653
H         11.03269         3.42775        -0.27503
H          9.75838         5.58089         0.22952
H          8.51892         7.74810        -0.15186
H          7.24981        10.05212         0.17122
H          5.15432        11.23152        -0.20949
H          2.57660        10.97313        -1.19733
H          0.08627        11.00842        -1.19808
H         -2.26934        11.02176        -1.20321
H         -4.70999        10.59461        -2.28688
H         -6.83556         9.38338        -2.16789
H         -8.27208         7.57507        -1.33395
H         -8.68911         4.83788        -1.84577
H        -10.59972         3.32139        -1.49269
H        -12.27285         0.97955        -0.96987
H        -12.01179        -1.32072        -0.57622
H        -10.91817        -3.34926        -0.15668
H         -9.61341        -5.57646         0.37430
H         -8.51426        -7.69924         0.18611
H         -6.93095        -9.56771        -1.34009
H         -4.79209       -10.75472        -1.45989
H         -2.44746       -11.33140         0.11651
H         -0.07784       -11.34337         0.02202
H          2.39574       -11.29486        -0.66787
H          4.87835       -11.17428        -1.28941
H          6.96169        -9.91145        -1.52059
H          8.16334        -7.54093        -1.89627
H          9.55130        -5.58134        -1.35162
H          9.91169        -2.69744        -1.87775
