         429
 CSIRO Nanostructure Databank - Neutral Graphene Oxide Data Set
C          1.32997         1.98574         1.28116
C          1.29368         3.39031         1.49915
C          2.50361         1.28498         1.26204
C          2.47020         4.16875         1.51532
C          1.23693         6.33204         1.21064
C          1.18623         7.69532         1.10429
C          2.43835         5.59652         1.46204
C          2.37098         8.55204         1.29129
C          1.17229        10.68428         0.74480
C          1.16350        12.06090         0.57063
C          2.37874         9.97573         0.87689
C          2.36852        12.79423         0.50080
C          1.16731        14.99146         0.37171
C          1.17776        16.37124         0.26253
C          2.36868        14.24118         0.37792
C          2.40020        17.07693         0.13804
C          2.41611        18.52572         0.00865
C          3.78465         1.97409         1.64201
C          3.73926         3.46362         1.35833
C          5.00250         1.26760         1.11552
C          4.87094         4.13416         0.97375
C          3.70602         6.34185         1.52949
C          3.70547         7.84090         1.41905
C          4.97375         5.59350         1.16070
C          4.92014         8.53775         0.94616
C          3.61465        10.66597         0.75603
C          3.60190        12.08126         0.54852
C          4.87140         9.93908         0.74700
C          4.84296        12.79788         0.39535
C          3.60945        14.94165         0.27434
C          3.60550        16.36095         0.15471
C          4.84763        14.21616         0.28267
C          4.89372        17.08029        -0.16088
C          3.57637        19.23248        -0.01898
C          4.86943        18.57780         0.07380
C          6.12401         1.93513         0.66341
C          6.03890         3.39917         0.44633
C          7.36513         1.29115         0.40975
C          7.30198         4.17184         0.17687
C          6.14821         6.35205         0.66666
C          6.10983         7.79834         0.64688
C          7.31094         5.64224         0.35354
C          7.27060         8.50782         0.22945
C          6.07995        10.65925         0.45150
C          6.05910        12.06090         0.32979
C          7.30738         9.92116         0.23398
C          7.32745        12.79981        -0.02833
C          6.10742        14.95316         0.34781
C          6.09239        16.37202         0.39490
C          7.31525        14.23556         0.42022
C          7.30740        17.12992         0.67946
C          6.01827        19.29725         0.20564
C          7.31985        18.64852         0.49604
C          8.58146         2.01389         0.24066
C          8.58021         3.44397         0.18279
C          9.83277         1.34442         0.21733
C          9.79008         4.16975         0.19512
C          8.54534         6.30978         0.09086
C          8.46062         7.75301        -0.18908
C          9.76529         5.62546         0.06455
C          9.76254         8.50575        -0.42083
C          8.54914        10.62118         0.07603
C          8.57450        12.07997         0.48053
C          9.74492         9.96049        -0.18460
C          9.82950        12.82072         0.07192
C          8.60850        14.92104         0.52980
C          8.62302        16.41335         0.61029
C          9.83911        14.21276         0.10282
C          9.74405        17.11439        -0.16077
C          8.59302        19.30850         0.20163
C          9.80210        18.61099         0.12388
C         11.04585         2.05797         0.28890
C         11.01873         3.47913         0.31749
C         12.31457         1.37276         0.28056
C         12.21751         4.28949         0.74802
C         11.02015         6.33954        -0.07889
C         11.02588         7.76480        -0.26365
C         12.24105         5.65538         0.07936
C         12.22069         8.49815        -0.23048
C         10.99633        10.65526        -0.25564
C         11.02406        12.11451        -0.22793
C         12.18588         9.92931        -0.31773
C         12.20885        12.82759        -0.47703
C         11.04299        14.95189        -0.11654
C         11.05891        16.37997        -0.07149
C         12.24955        14.24101        -0.39596
C         12.26071        17.07793        -0.22002
C         11.05434        19.24586         0.05066
C         12.27635        18.53072        -0.12387
C         13.52712         2.03857         0.38380
C         13.59257         3.51389         0.78070
C         14.76206         1.36109         0.17440
C         14.66998         4.13141        -0.13950
C         13.47884         6.34350        -0.14414
C         13.48467         7.79225        -0.26846
C         14.67441         5.62894        -0.20824
C         14.68252         8.47953        -0.41062
C         13.44822        10.69358        -0.31856
C         13.41406        12.06349        -0.95414
C         14.73471         9.94036        -0.34198
C         14.72832        12.80326        -0.86559
C         13.48346        14.95498        -0.58059
C         13.49230        16.36931        -0.44250
C         14.71285        14.25099        -0.85681
C         14.71900        17.09361        -0.53089
C         13.50055        19.20836        -0.17592
C         14.73708        18.52220        -0.37244
C         16.00948         2.01995         0.05624
C         16.05579         3.52534         0.22051
C         17.21181         1.34618        -0.15775
C         17.21415         4.19167        -0.49760
C         15.89612         6.27187        -0.68327
C         15.91077         7.78239        -0.78929
C         17.18725         5.55879        -0.63976
C         17.20794         8.50861        -0.74159
C         15.96674        10.64418        -0.74708
C         15.91632        12.07740        -0.90344
C         17.16351         9.94284        -0.80083
C         17.16822        12.76046        -1.27805
C         15.90571        14.98356        -1.00369
C         15.93666        16.40317        -0.80251
C         17.14586        14.28583        -1.37795
C         17.15037        17.13138        -0.92074
C         15.96746        19.20838        -0.41130
C         17.18939        18.53369        -0.66844
C         18.44896         2.02068        -0.47851
C         18.45830         3.47385        -0.63893
C         19.61353         1.30360        -0.65781
C         19.62069         4.16140        -1.01430
C         18.45898         6.31778        -0.40589
C         18.40873         7.79913        -0.70762
C         19.67659         5.59180        -0.94543
C         19.66621         8.47075        -0.82451
C         18.44367        10.69310        -0.52592
C         18.46631        12.12480        -1.03174
C         19.66664         9.95970        -1.08086
C         19.63984        12.83390        -1.16101
C         18.43503        14.97938        -1.30333
C         18.38605        16.44624        -1.33897
C         19.64007        14.28649        -1.31251
C         19.70683        17.19437        -1.28183
C         18.44736        19.22081        -0.59510
C         19.68558        18.58408        -0.77805
C         20.84859         1.87315        -1.30771
C         20.83309         3.40452        -1.42040
C         22.13509         1.33305        -0.72312
C         22.13580         4.15456        -1.45070
C         20.86775         6.31589        -1.10601
C         20.84726         7.75897        -1.00755
C         22.13947         5.63660        -1.28165
C         22.09905         8.52669        -1.23513
C         20.92860        10.68593        -0.63066
C         20.94083        12.15871        -0.86858
C         22.20943         9.88429        -0.56500
C         22.22258        12.81677        -1.18820
C         20.90099        15.00935        -1.28697
C         20.95121        16.39943        -1.21142
C         22.16407        14.26152        -1.49824
C         22.19415        17.11215        -1.03551
C         20.92574        19.20303        -0.53035
C         22.16406        18.51559        -0.68544
C         23.34011         2.01330        -0.73775
C         23.38939         3.43096        -1.11686
C         24.56906         1.35231        -0.39573
C         24.55574         4.13394        -1.01972
C         23.33413         6.31433        -1.36650
C         23.38997         7.79027        -1.42450
C         24.61236         5.56867        -1.39786
C         24.65998         8.51153        -1.13795
C         23.43932        10.66584        -0.96892
C         23.42159        12.11598        -1.12123
C         24.62072         9.94988        -1.01757
C         24.70416        12.81137        -1.22794
C         23.46449        15.03139        -1.58255
C         23.43445        16.44699        -1.14544
C         24.79695        14.27687        -1.63138
C         24.64500        17.11001        -0.81631
C         23.38417        19.18602        -0.45928
C         24.62427        18.51088        -0.50299
C         25.78843         2.04023        -0.26776
C         25.74279         3.51695        -0.39209
C         27.01323         1.41858         0.03809
C         27.03960         4.28276        -0.32303
C         25.90158         6.34409        -1.25000
C         25.86764         7.81897        -1.09730
C         27.12940         5.66574        -0.80622
C         27.13386         8.49744        -1.01594
C         25.88948        10.67366        -0.67254
C         25.88393        12.14038        -1.01021
C         27.12639         9.96115        -1.15038
C         27.14547        12.84392        -0.83960
C         25.92777        14.98968        -0.92711
C         25.88619        16.38482        -0.72882
C         27.11946        14.27176        -0.69505
C         27.10026        17.08115        -0.41881
C         25.84743        19.19036        -0.23490
C         27.07905        18.52179        -0.21620
C         28.25122         2.13751         0.15685
C         28.26748         3.53247        -0.05284
C         29.48968         1.43784         0.36993
C         29.47942         4.32061         0.11997
C         28.35042         6.37104        -0.74692
C         28.35852         7.82744        -0.94877
C         29.52279         5.70787        -0.35357
C         29.58863         8.56472        -0.81345
C         28.42171        10.72252        -1.01119
C         28.35467        12.15598        -0.67633
C         29.63933         9.95287        -0.74584
C         29.55246        12.81342        -0.25528
C         28.32526        14.95815        -0.35864
C         28.30543        16.37544        -0.30600
C         29.53022        14.22788        -0.09022
C         29.61735        17.10623        -0.36112
C         28.29638        19.20264         0.06882
C         29.54245        18.54991         0.08127
C         30.73617         2.07733         0.38373
C         30.78985         3.55505         0.37349
C         31.97766         1.39436         0.42277
C         32.05536         4.21926         0.05840
C         30.81806         6.44344        -0.17390
C         30.88327         7.80545        -0.88372
C         32.02549         5.58137        -0.60192
C         32.09365         8.54156        -0.34386
C         30.82743        10.66123        -0.31239
C         30.75201        12.04357        -0.04620
C         32.05061         9.92392        -0.08541
C         31.89851        12.69558         0.62145
C         30.70192        14.95219         0.33298
C         30.74353        16.33541         0.27794
C         31.85802        14.19155         0.87516
C         31.97690        17.04653         0.49537
C         30.73896        19.21618         0.36345
C         31.98621        18.52349         0.50242
C         33.21693         2.07546         0.34698
C         33.23704         3.51167         0.08841
C         34.44606         1.39332         0.41335
C         34.49603         4.21245        -0.09818
C         33.29353         6.36210        -0.34554
C         33.26755         7.75889        -0.16258
C         34.49844         5.61112        -0.25738
C         34.46999         8.38621         0.49803
C         33.24063        10.63042         0.38911
C         33.18712        11.97830         0.68387
C         34.49626         9.89695         0.49826
C         34.34916        12.68590         1.36081
C         33.14930        14.96123         1.22624
C         33.15296        16.35552         0.65267
C         34.42453        14.16498         0.99773
C         34.42266        17.11201         0.37215
C         33.14364        19.17895         0.86897
C         34.37487        18.40060         1.29328
C         35.69151         2.06407         0.29665
C         35.73259         3.49064         0.05725
C         36.90448         1.34416         0.38595
C         36.97255         4.15391         0.02142
C         35.77535         6.35241        -0.37910
C         35.76372         7.79929        -0.01353
C         37.09092         5.59420        -0.43539
C         37.02170         8.49395         0.34170
C         35.69240        10.53482         0.75454
C         35.68793        11.95314         1.18843
C         36.97980         9.84920         0.64205
C         36.97735        12.71636         1.06806
C         35.63482        14.84327         0.85280
C         35.65166        16.25474         0.52883
C         36.92522        14.17748         0.86776
C         36.85527        16.85582         0.24989
C         35.63537        19.24279         1.44124
C         36.82819        18.98570         0.82115
C         38.14513         2.00111         0.34819
C         38.17399         3.43084         0.22468
C         39.39066         1.29728         0.43523
C         39.42147         4.11464         0.34217
C         38.22604         6.34868         0.23682
C         38.24856         7.73513         0.37277
C         39.41497         5.56940         0.56712
C         39.50352         8.45815         0.52063
C         38.22825        10.59524         0.66943
C         38.22300        11.99433         0.71820
C         39.47778         9.88786         0.53116
C         39.43504        12.74353         0.60973
C         38.13195        14.86818         0.70641
C         38.13585        16.29753         0.52628
C         39.40191        14.17398         0.66253
C         39.30637        17.08730         0.68175
C         38.16376        19.34068         1.19972
C         39.29128        18.52605         0.96781
C         40.58694         1.97195         0.42244
C         40.62626         3.40306         0.41324
C         41.88398         4.12028         0.38007
C         40.77177         6.30755         0.66521
C         40.74288         7.77370         0.47480
C         41.95886         5.47830         0.40442
C         41.93580         8.51717         0.34464
C         40.69737        10.61829         0.43545
C         40.67521        12.06418         0.45585
C         41.91357         9.89936         0.31644
C         41.85375        12.84504         0.34098
C         40.59324        14.92589         0.58746
C         40.56551        16.38323         0.73824
C         41.81490        14.22375         0.41057
C         41.75058        17.08373         0.96282
C         40.55259        19.16192         1.22640
C         41.74191        18.47508         1.19295
O         14.19817        10.54980         0.91774
O         21.43086         3.80606        -2.70528
O         16.45146         3.84425         1.54358
O         36.50054        12.20809         2.39252
O         40.02323         5.91549         1.85797
O         26.08414         4.21037         0.86505
O          3.05498         8.42039         2.59428
O         36.81427        18.14268        -0.31738
O         18.99356        17.02784        -2.55096
O         22.65073         8.40595        -2.57192
O         25.43896         5.85148        -2.58582
O          9.40117        17.04119        -1.52869
O         35.71516         7.39991        -1.42788
O         27.79156        10.45524        -2.33523
O         15.72612         6.96031        -2.00046
O          8.93068         8.07590        -1.54865
O         20.87796        11.58144         0.53480
O          6.38616         3.78152        -0.92967
O          8.90879        15.66950         1.81026
O         30.07095         4.17720         1.49896
O         17.04568        13.43551        -2.57075
O          4.64389         5.91766         2.57149
O          7.26102        18.02433         1.85112
O         31.48615        13.27160         1.93848
O         22.72453        14.70626        -2.80515
O         34.32839        17.55160        -1.00119
H         35.17745        18.00316        -1.21998
O         14.02056         3.52654         2.15151
H         15.02925         3.62168         2.18856
O         18.46364        10.72057         0.92165
H         19.29291        11.17669         1.20594
O         18.61856         6.25822         1.07184
H         18.12589         5.46525         1.39720
O          5.03533        16.94519        -1.63338
H          4.29129        17.43982        -2.03952
O         33.10090        15.18176         2.66724
H         33.03129        14.27786         3.06747
O          8.49252        12.11464         1.93190
H          9.34354        11.79767         2.29952
O         30.96095         6.73657         1.24132
H         30.70075         5.91586         1.73226
O         31.93850         5.20789        -2.00126
H         31.84833         6.03567        -2.53219
O         11.86358         4.65177         2.11876
H         12.62663         4.36006         2.68545
O         25.21929        14.27370        -3.02906
H         24.39684        14.19483        -3.56760
O          7.42601        12.82123        -1.48439
H          6.70393        13.38323        -1.83709
O         25.98082        10.58051         0.79358
H         25.09690        10.78324         1.16804
O         34.12378        17.90777         2.63567
H         33.68776        18.61202         3.15755
O         14.33407         3.69834        -1.49078
H         14.83207         4.25399        -2.12816
O         34.39812         7.99883         1.90806
H         33.53403         8.30073         2.26127
O         31.09140         7.61508        -2.32095
H         30.96882         8.48316        -2.76056
O         37.48619         5.51279        -1.84108
H         37.10954         6.31373        -2.27651
O          3.88242         1.87018         3.11600
H          3.17510         2.43471         3.49498
O         19.61293        10.12326        -2.52525
H         20.24896         9.50262        -2.94172
O         13.20332        11.80027        -2.38005
H         13.16652        12.66180        -2.84706
O         22.41965         9.54975         0.84209
H         22.07727        10.30898         1.36858
O         29.96196        17.14868        -1.79429
H         29.22753        17.60417        -2.25834
O         20.81475         1.32698        -2.66703
H         21.19869         2.02719        -3.24971
O         34.03256        12.63449         2.78836
H         34.90326        12.65186         3.25563
H          0.37653         1.46189         1.11725
H          0.31174         3.87728         1.56630
H          2.50763         0.19889         1.09172
H          0.30237         5.77293         1.06123
H          0.23095         8.16628         0.83366
H          0.21353        10.15504         0.82875
H          0.19509        12.57404         0.51108
H          0.19888        14.48138         0.45826
H          0.23105        16.93015         0.26187
H          1.44971        19.04955        -0.02659
H          5.04320         0.17549         1.25076
H          3.55355        20.33223        -0.05124
H          7.41905         0.19690         0.51353
H          5.97193        20.39821         0.23314
H          9.85354         0.24469         0.21910
H          8.57342        20.38946        -0.01471
H         12.31029         0.28449         0.10631
H         11.10946        20.33608         0.20625
H         14.72524         0.27341        -0.01074
H         13.51382        20.30516        -0.08179
H         17.22802         0.24391        -0.13101
H         15.98125        20.29609        -0.24653
H         19.59830         0.21161        -0.51452
H         18.43874        20.28058        -0.29776
H         22.13923         0.26685        -0.44724
H         20.94589        20.25261        -0.19987
H         24.54398         0.26664        -0.21741
H         23.36715        20.25805        -0.21218
H         27.03232         0.32623         0.16954
H         25.81811        20.27105        -0.02992
H         29.45695         0.34060         0.44637
H         28.25398        20.27540         0.31339
H         31.97989         0.29717         0.50876
H         30.71669        20.29953         0.56199
H         34.44722         0.30480         0.57653
H         33.14008        20.27554         0.97191
H         36.87231         0.25049         0.50233
H         35.66850        19.84886         2.36189
H         39.37441         0.19976         0.50197
H         38.32972        20.29571         1.72273
H         41.53495         1.41647         0.46863
H         42.80352         3.53045         0.24758
H         42.92856         5.97019         0.24008
H         42.90149         7.99610         0.29082
H         42.86639        10.43771         0.23089
H         42.82676        12.35667         0.19809
H         42.75840        14.77605         0.30925
H         42.71279        16.55708         0.99909
H         40.55189        20.24035         1.44189
H         42.68990        18.99956         1.37517
