         430
 CSIRO Nanostructure Databank - Neutral Graphene Oxide Data Set
C         27.91306        27.40922        -0.03737
C         27.89327        28.81232        -0.58706
C         26.64058        29.59515        -0.30976
C         27.90735        31.57082         0.55143
C         26.65029        30.87223         0.08724
C         27.88955        33.08308         0.47675
C         26.70681        33.77851         0.76914
C         27.90435        35.89351         0.82217
C         26.69950        35.16413         0.86944
C         27.91812        37.35373         0.90731
C         26.72587        38.08351         1.06926
C         27.89075        40.21273         0.81127
C         26.70744        39.47056         1.02337
C         27.87960        41.65648         0.73280
C         26.66742        42.40126         0.80962
C         27.88946        44.50225         0.63259
C         26.66829        43.77545         0.75889
C         27.90517        45.91529         0.63851
C         30.36252        27.38609        -0.22934
C         29.08974        26.74001         0.03154
C         30.38279        28.83762        -0.27940
C         29.15897        29.54870        -0.21807
C         30.37330        31.65346        -0.07713
C         29.16342        30.93420        -0.00276
C         30.32817        33.14975        -0.21382
C         29.09593        33.80389         0.36483
C         30.41815        35.88837         0.89776
C         29.11305        35.18930         0.60332
C         30.38717        37.37409         0.63511
C         29.14331        38.07148         0.74302
C         30.35096        40.21873         0.53652
C         29.12244        39.50130         0.69114
C         30.34137        41.64320         0.47995
C         29.10650        42.36020         0.57156
C         30.34938        44.51014         0.39169
C         29.11775        43.78819         0.52105
C         30.33476        45.93329         0.45182
C         29.11118        46.60700         0.58076
C         32.86551        24.58162        -0.37409
C         31.63467        25.24890        -0.31523
C         32.85660        27.37679        -0.43321
C         31.56177        26.65619        -0.33572
C         32.87974        28.85969        -0.40908
C         31.59209        29.56902        -0.31531
C         32.86854        31.70502        -0.37847
C         31.59382        30.97701        -0.30484
C         32.85945        33.11513        -0.13160
C         31.63744        33.82849         0.11089
C         32.87713        35.92686         0.32397
C         31.65171        35.19044         0.37550
C         32.85884        37.36234         0.41659
C         31.59515        38.07306         0.51447
C         32.80280        40.23444         0.33314
C         31.58358        39.50711         0.46569
C         32.77763        41.62942         0.19183
C         31.56405        42.35960         0.29262
C         32.82640        44.49198         0.02397
C         31.57637        43.78731         0.23738
C         32.75407        45.97887        -0.26137
C         31.66146        46.66190         0.56809
C         32.76558        48.79302        -0.04822
C         31.62318        48.13352         0.22725
C         35.37972        23.13842        -0.37180
C         35.33301        24.53364        -0.63985
C         34.07890        25.22862        -0.63360
C         35.31466        27.45411        -0.96233
C         34.01848        26.66972        -1.09153
C         35.32447        28.81207        -0.97872
C         34.02444        29.58682        -1.08238
C         35.32005        31.73806        -0.66746
C         34.08018        31.03405        -0.63182
C         35.30116        33.12956        -0.43610
C         34.09349        33.82247        -0.13462
C         35.32852        35.97606         0.06557
C         34.09214        35.24336         0.07248
C         35.31532        37.38501         0.25358
C         34.06721        38.08055         0.34320
C         35.27387        40.22550         0.36355
C         34.07266        39.52341         0.33211
C         35.23458        41.72450         0.56787
C         34.05742        42.32088        -0.19441
C         35.30198        44.53085        -0.45427
C         34.01232        43.82401        -0.10124
C         35.29351        46.00766        -0.15067
C         34.07748        46.70485        -0.11282
C         35.28280        48.84072        -0.13062
C         34.05699        48.11579        -0.07827
C         35.31689        50.26730        -0.20730
C         37.79748        23.10479        -0.60590
C         36.56729        22.44454        -0.37204
C         37.76401        24.50482        -0.86627
C         36.55576        25.21831        -0.89462
C         37.84506        27.40763        -0.98103
C         36.56303        26.67534        -1.32591
C         37.84925        28.82951        -0.95051
C         36.59039        29.57813        -1.31869
C         37.79417        31.71185        -0.86930
C         36.59417        31.04340        -0.89761
C         37.84254        33.19060        -0.83719
C         36.52624        33.91737        -0.63136
C         37.78277        36.01037        -0.15307
C         36.55472        35.31479        -0.18434
C         37.75938        37.40708         0.09887
C         36.54896        38.09692         0.26963
C         37.72310        40.27141         0.51504
C         36.53294        39.54880         0.39860
C         37.74732        41.70456         0.42842
C         36.53587        42.43353         0.27194
C         37.76919        44.53696         0.13844
C         36.54507        43.81660         0.05299
C         37.77612        45.99039         0.02330
C         36.52279        46.70444        -0.08760
C         37.75846        48.85315        -0.18635
C         36.52325        48.13214        -0.11696
C         37.75573        50.26601        -0.32650
C         36.50173        50.94807        -0.32182
C         40.23106        20.29796        -0.00315
C         39.06333        20.97095        -0.26185
C         40.28084        23.07502        -0.47637
C         39.05100        22.38296        -0.48036
C         40.33622        24.49794        -0.86161
C         39.03124        25.22912        -1.10538
C         40.34812        27.38829        -1.21480
C         39.03776        26.69419        -0.98213
C         40.29962        28.85506        -0.89408
C         39.09290        29.53087        -0.89129
C         40.33624        31.73688        -0.65283
C         39.10239        31.01936        -1.18532
C         40.32595        33.15922        -0.43584
C         39.09376        33.91613        -0.51648
C         40.27596        36.03481        -0.00451
C         39.04943        35.30022        -0.29767
C         40.25772        37.36782         0.30486
C         39.03560        38.19987         0.00175
C         40.25688        40.28439         0.58588
C         38.98499        39.50108         0.81729
C         40.24848        41.68324         0.47477
C         38.98508        42.40671         0.40613
C         40.24776        44.53530         0.50183
C         38.97327        43.81450         0.33631
C         40.24447        46.03472         0.35847
C         38.97000        46.71399         0.06454
C         40.23390        48.83147        -0.17927
C         39.00209        48.13849        -0.11298
C         40.23502        50.25335        -0.37170
C         39.00124        50.97270        -0.46000
C         40.24049        53.05120        -0.77420
C         39.04272        52.37846        -0.67094
C         42.66656        20.32555         0.41736
C         41.46744        20.99834         0.09279
C         42.72508        23.12991        -0.04228
C         41.48715        22.40679        -0.14656
C         42.73926        24.56492        -0.18745
C         41.55858        25.27768        -0.54112
C         42.77290        27.42374        -0.48260
C         41.56095        26.67255        -0.66556
C         42.79754        28.83840        -0.59136
C         41.58889        29.60752        -1.08731
C         42.78399        31.70126        -0.33493
C         41.53684        31.03539        -0.59479
C         42.77452        33.13038        -0.14950
C         41.55259        33.83077        -0.19883
C         42.79240        35.98141         0.31588
C         41.58416        35.33477        -0.30536
C         42.76797        37.39249         0.57083
C         41.46011        38.07902         0.87952
C         42.69540        40.26700         0.65594
C         41.48110        39.57448         0.63768
C         42.71836        41.67290         0.45843
C         41.49025        42.38624         0.37577
C         42.71608        44.51298         0.12026
C         41.51812        43.81344         0.30101
C         42.71348        45.96429        -0.05063
C         41.50851        46.70297         0.01187
C         42.72806        48.78013        -0.35528
C         41.49795        48.10441        -0.17180
C         42.75916        50.26881        -0.14180
C         41.46290        50.96335        -0.46536
C         42.72961        53.06297        -0.74922
C         41.47241        52.35368        -0.65227
C         43.85734        21.03071         0.50386
C         45.21763        23.12648         0.45837
C         43.90277        22.41705         0.26773
C         45.18840        24.58349         0.07988
C         43.97469        25.28612        -0.07507
C         45.22489        27.41958        -0.16560
C         43.98618        26.71116        -0.22097
C         45.23565        28.82912        -0.26025
C         44.01678        29.54983        -0.40983
C         45.29637        31.76178        -0.44770
C         44.00407        30.98950        -0.35238
C         45.23187        33.14082         0.16166
C         44.01441        33.82756         0.12531
C         45.20442        35.90289         0.76999
C         43.98600        35.24884         0.41305
C         45.17386        37.34686         1.00531
C         43.93334        38.08834         0.79943
C         45.21813        40.26423         0.65095
C         43.94794        39.56761         1.11892
C         45.20208        41.65074         0.32731
C         43.96158        42.37940         0.32292
C         45.18308        44.44147        -0.21917
C         43.95774        43.77576         0.07355
C         45.14148        45.86160        -0.61758
C         43.90657        46.64810        -0.39884
C         45.16007        48.77228        -1.05163
C         43.92113        48.05471        -0.52749
C         45.18133        50.26269        -0.77582
C         43.99704        50.97008        -0.65393
C         43.92623        52.40536        -0.75351
C         47.54913        23.09448        -0.38278
C         46.38333        22.42976        -0.20198
C         47.65209        24.51319        -0.11796
C         46.43354        25.26217        -0.00824
C         47.70906        27.35781         0.11142
C         46.45840        26.68438        -0.05055
C         47.74336        28.79561         0.11297
C         46.55842        29.53738        -0.45485
C         47.68959        31.65299         0.26868
C         46.52800        30.98737        -0.06754
C         47.65822        33.06241         0.59537
C         46.44892        33.78435         0.56907
C         47.65701        35.94833         0.92785
C         46.42970        35.21143         0.84567
C         47.70118        37.34289         0.73344
C         46.48346        38.12758         0.93942
C         47.62528        40.20181         0.17200
C         46.43124        39.56196         0.58161
C         47.64925        41.59883        -0.04384
C         46.42250        42.32899         0.02610
C         47.66825        44.44038        -0.38305
C         46.41101        43.74315        -0.22654
C         47.70234        45.86179        -0.47934
C         46.45327        46.60097        -0.74211
C         47.63008        48.76725        -0.54529
C         46.45858        48.07575        -0.69050
C         47.62091        50.21062        -0.58972
C         46.46063        50.91522        -0.73388
C         50.15956        24.52731        -0.14583
C         48.89835        25.19339        -0.03346
C         50.15613        27.24009         0.60452
C         48.89541        26.59533         0.22381
C         50.14525        28.76795         0.75078
C         48.91240        29.49037         0.38910
C         50.17539        31.60315         0.52343
C         48.95334        30.92832         0.38551
C         50.19585        33.03824         0.70436
C         48.91152        33.69606         1.00395
C         50.18840        35.94420         0.82548
C         48.93158        35.25231         1.09856
C         50.15879        37.33434         0.49487
C         48.91193        38.00491         0.42112
C         50.16699        40.13979        -0.23952
C         48.84900        39.40276        -0.03382
C         50.14187        41.61083        -0.20403
C         48.90592        42.29717        -0.22340
C         50.13981        44.43184        -0.36818
C         48.89986        43.72636        -0.30979
C         50.14573        45.86016        -0.44040
C         48.90767        46.56610        -0.42783
C         50.14740        48.67449        -0.86779
C         48.93202        48.06473        -0.21651
C         51.36546        25.20016        -0.02777
C         52.66243        27.29640         0.44166
C         51.43373        26.56190         0.34396
C         52.64380        28.73303         0.58537
C         51.42995        29.46795         0.62680
C         52.66946        31.58100         0.62830
C         51.43011        30.87583         0.55199
C         52.67416        33.06725         0.37305
C         51.37713        33.76360         0.71433
C         52.64405        35.91335         0.71315
C         51.40918        35.20743         0.78938
C         52.63450        37.40723         0.91309
C         51.39014        38.07384         0.38994
C         52.64413        40.18318         0.10000
C         51.41466        39.43265         0.10385
C         52.62656        41.58279        -0.11465
C         51.37990        42.30387        -0.20749
C         52.61163        44.44326        -0.40707
C         51.37788        43.72694        -0.32252
C         52.61071        45.86266        -0.57739
C         51.37389        46.56737        -0.61263
C         51.30191        47.97541        -0.95217
C         55.10528        27.38630         0.22204
C         53.92075        26.66054         0.29782
C         55.10763        28.78531         0.35473
C         53.87249        29.45676         0.59710
C         55.19362        31.51039         1.13365
C         53.86597        30.88079         0.73500
C         55.14564        33.03649         1.21101
C         53.86138        33.77580         0.98250
C         55.11716        35.93330         0.78985
C         53.88828        35.24453         0.78063
C         55.12695        37.37166         0.53859
C         53.91184        38.08423         0.48621
C         55.12410        40.18136         0.03747
C         53.89714        39.48040         0.21954
C         55.10826        41.61494        -0.15886
C         53.86443        42.30532        -0.20594
C         55.07560        44.43919        -0.48409
C         53.84817        43.72736        -0.36634
C         55.05298        45.85794        -0.64220
C         53.86651        46.54282        -0.68904
C         56.29592        29.57973         0.08608
C         56.32411        30.90704         0.33753
C         56.37747        33.83878         1.14555
C         56.33923        35.19006         0.96268
C         56.33527        38.07991         0.30499
C         56.33242        39.44178         0.07784
C         56.31368        42.35727        -0.28443
C         56.30060        43.72776        -0.44295
O         49.43332        39.57230        -1.37858
O         33.23658        28.09730         0.79271
O         40.26925        45.40459         1.69663
O         48.91824        34.38502         2.28399
O         54.23896        33.40503         2.34145
O         50.06377        27.90498         1.92312
O         39.83813        24.72674        -2.24621
O         45.75307        46.08845        -1.95324
O         37.11464        33.77029        -1.98076
O         45.86911        37.80782         2.24119
O         42.88757        50.40542         1.33176
H         42.83821        51.36407         1.53575
O         39.21062        31.06058        -2.65548
H         40.09399        30.65853        -2.87555
O         43.89478        39.64299         2.58938
H         44.67134        39.11718         2.91010
O         41.35029        37.94341         2.35288
H         42.09314        38.47368         2.73463
O         33.74101        26.61365        -2.52169
H         34.60002        26.41273        -2.96899
O         52.86312        33.22189        -1.07483
H         52.10023        32.79973        -1.52343
O         46.75688        29.52520        -1.92174
H         46.25893        30.30477        -2.27599
O         41.75276        35.58004        -1.76162
H         41.05746        35.06232        -2.22305
O         35.39595        44.45762        -1.92462
H         35.30101        43.49914        -2.15439
O         32.06779        46.53366         1.96077
H         31.40527        46.99420         2.51619
O         36.52906        26.65596        -2.80192
H         36.62855        27.59813        -3.09060
O         27.92858        28.66633        -2.05035
H         28.75151        28.18242        -2.27627
O         36.60815        29.61623        -2.80676
H         37.41410        30.14069        -3.05331
O         34.29016        41.99705        -1.61359
H         33.44407        42.13103        -2.09148
O         55.42264        31.06225         2.50670
H         54.83521        31.61095         3.07528
O         41.73907        29.73485        -2.56040
H         41.54640        28.83434        -2.93153
O         45.46775        32.00549        -1.92693
H         44.63066        32.40888        -2.24725
O         49.10788        48.25643         1.23428
H         49.96494        47.84700         1.47934
O         34.97101        41.94836         1.98300
H         35.71567        41.56538         2.49317
O         30.17495        33.37143        -1.66957
H         30.90647        32.89568        -2.11884
O         45.05219        48.67528        -2.51396
H         45.21292        47.72373        -2.73560
O         39.17623        38.61881        -1.39378
H         39.21107        37.81108        -1.94872
O         52.56723        37.59215         2.38497
H         53.29756        37.06706         2.77787
O         33.70969        29.63385        -2.50627
H         34.55229        29.82330        -2.98123
O         45.48016        23.08397         1.91120
H         46.33759        23.53698         2.06117
O         40.55009        27.31463        -2.70612
H         40.41001        26.35681        -2.93503
O         38.90157        39.17568         2.22921
H         39.73984        38.70862         2.48772
O         32.36584        46.09009        -1.65855
H         33.13113        45.79596        -2.19841
O         30.55706        35.77925         2.36862
H         29.77013        36.20724         2.76901
O         27.97528        31.30723         1.99990
H         28.05498        30.33715         2.12097
H         26.96364        26.89326         0.16892
H         25.68807        29.10757        -0.57067
H         25.69035        31.39408         0.21927
H         25.76174        33.23471         0.89996
H         25.74192        35.67414         1.03675
H         25.77413        37.55871         1.22335
H         25.74503        39.98341         1.14885
H         25.70786        41.87786         0.91385
H         25.72246        44.33199         0.82743
H         26.95792        46.46641         0.72563
H         29.09077        25.68113         0.32905
H         29.08586        47.70381         0.63784
H         32.84718        23.49539        -0.20990
H         30.72192        24.64921        -0.19489
H         32.72424        49.87431        -0.24096
H         30.67760        48.69279         0.26933
H         34.45445        22.58433        -0.17193
H         34.37972        50.83916        -0.19655
H         36.54225        21.36794        -0.16334
H         36.47317        52.04305        -0.39675
H         40.22094        19.20941         0.15069
H         38.12892        20.39811        -0.31542
H         40.25319        54.13819        -0.93887
H         38.10869        52.94886        -0.75775
H         42.64417        19.24381         0.61150
H         42.70057        54.15396        -0.88436
H         44.77910        20.50278         0.78458
H         44.84425        52.98182        -0.93490
H         48.42790        22.55863        -0.77006
H         46.31603        21.35695        -0.43320
H         48.56505        50.75570        -0.45732
H         46.50353        52.01234        -0.68640
H         50.17957        23.45450        -0.38047
H         50.13070        49.72978        -1.17421
H         52.29303        24.63762        -0.20293
H         52.19873        48.47043        -1.35114
H         56.05365        26.85857         0.04509
H         53.96923        25.56715         0.20412
H         56.00759        46.39755        -0.72466
H         53.88440        47.63504        -0.80197
H         57.15492        29.07966        -0.38697
H         57.21457        31.50654         0.09864
H         57.34840        33.32976         1.23039
H         57.29377        35.73383         0.93933
H         57.29670        37.54974         0.31144
H         57.29469        39.94655        -0.07885
H         57.28205        41.84108        -0.25137
H         57.24582        44.28165        -0.53600
