         620
 CSIRO Nanostructure Databank - Neutral Graphene Oxide Data Set
C         23.08285        27.50356         2.35895
C         23.05281        28.85883         2.15802
C         22.99891        31.77783         1.58935
C         22.99569        33.14432         1.38929
C         23.04880        36.07353         1.18270
C         23.05902        37.43839         1.06599
C         23.03270        40.32820         0.47026
C         23.06254        41.69492         0.28057
C         23.03508        44.47140        -0.66742
C         23.03651        45.78368        -1.07078
C         25.44546        24.62456         1.96862
C         24.29266        25.34286         2.26117
C         25.44221        27.41723         1.65432
C         24.26848        26.74397         2.10096
C         25.41457        28.83625         1.47868
C         24.21027        29.57057         1.70799
C         25.38912        31.63875         1.09137
C         24.18443        30.98168         1.45402
C         25.32362        33.04493         0.60283
C         24.13782        33.85936         0.93618
C         25.36773        35.97746         0.39262
C         24.18646        35.27708         0.83343
C         25.40304        37.36749         0.34997
C         24.23037        38.14439         0.65266
C         25.50034        40.29028         0.46797
C         24.21841        39.55848         0.50018
C         25.53457        41.74395         0.20381
C         24.27545        42.43759         0.09865
C         25.48024        44.57914        -0.30277
C         24.23518        43.80191        -0.28428
C         25.49769        45.90707        -0.92673
C         24.25799        46.52781        -1.22189
C         25.43495        48.56030        -1.80339
C         24.24130        47.86644        -1.66859
C         28.17412        23.42274         2.25732
C         27.77514        24.36062         1.13640
C         26.61547        25.26237         1.52166
C         27.78619        27.36372         0.85526
C         26.62517        26.66740         1.35314
C         27.81032        28.76068         0.82096
C         26.61696        29.51860         1.12407
C         27.88680        31.69143         1.00395
C         26.59382        30.92883         0.99872
C         27.85516        33.06422         0.36579
C         26.56125        33.72761         0.08490
C         27.84761        35.94213        -0.10760
C         26.51762        35.22913        -0.26831
C         27.90453        37.30877        -0.11309
C         26.60367        38.07200        -0.26362
C         27.99112        40.22294        -0.13818
C         26.75243        39.49967         0.21997
C         27.99051        41.63281        -0.22893
C         26.75854        42.36605        -0.07681
C         28.03050        44.47941        -0.73212
C         26.81954        43.82890        -0.19133
C         27.99956        45.83945        -1.11103
C         26.72552        46.56713        -1.18047
C         27.92259        48.67406        -1.84027
C         26.66938        47.92267        -1.58662
C         27.99587        50.09694        -1.47659
C         30.51562        23.23972         1.51943
C         29.39597        22.82573         2.31712
C         30.36703        24.46730         0.70650
C         28.99911        25.09645         0.56210
C         30.22862        27.31779         0.04116
C         28.92525        26.57957         0.31478
C         30.24395        28.77841         0.23262
C         29.03887        29.48152         0.49899
C         30.29112        31.58984         0.37604
C         29.07309        30.88713         0.55089
C         30.30626        33.02458         0.38906
C         29.04815        33.72928         0.24701
C         30.38589        35.89561        -0.01141
C         29.08375        35.15069        -0.15965
C         30.37716        37.36439         0.05350
C         29.16818        38.04255        -0.08265
C         30.44015        40.18126        -0.24351
C         29.19093        39.48576        -0.17741
C         30.44428        41.59926        -0.46622
C         29.22429        42.31922        -0.48908
C         30.46340        44.37884        -1.12436
C         29.23972        43.73258        -0.78084
C         30.43300        45.74696        -1.51096
C         29.21925        46.45785        -1.52088
C         30.46358        48.66496        -1.63985
C         29.22448        47.90255        -1.86496
C         30.45048        50.04328        -1.53204
C         29.18506        50.73744        -1.37818
C         33.13447        20.64836         2.13050
C         31.93184        21.30860         2.15849
C         32.94563        23.23685         1.01133
C         31.77630        22.60464         1.57323
C         32.86820        24.58471         0.54188
C         31.59791        25.26093         0.46786
C         32.73363        27.35244        -0.13233
C         31.52772        26.60229         0.11996
C         32.67667        28.74981        -0.20852
C         31.46665        29.46692         0.08126
C         32.75014        31.60297         0.13657
C         31.50413        30.88614         0.17461
C         32.75717        32.99551         0.41982
C         31.54172        33.70098         0.46133
C         32.81810        35.93921         0.76539
C         31.53620        35.17451         0.59788
C         32.83788        37.36232         0.38461
C         31.64398        38.05403         0.15285
C         32.91030        40.17830        -0.11881
C         31.65881        39.48080        -0.06030
C         32.91861        41.57411        -0.46230
C         31.69534        42.28463        -0.64617
C         32.96655        44.30917        -1.24284
C         31.71685        43.66145        -1.01660
C         33.02537        45.65960        -1.94112
C         31.69657        46.43096        -1.91844
C         32.98805        48.64685        -1.54842
C         31.72878        47.93738        -1.82088
C         32.95282        50.05916        -1.44921
C         31.70959        50.77065        -1.50306
C         32.92057        52.88028        -1.49157
C         31.72824        52.17686        -1.53647
C         35.71403        19.25451         2.10460
C         35.55924        20.54331         1.51937
C         34.29862        21.23252         1.54623
C         35.36594        23.18952         0.47151
C         34.19709        22.54928         1.00758
C         35.29634        24.56350         0.09870
C         34.04846        25.26505         0.14436
C         35.18868        27.33866        -0.53121
C         34.00034        26.65380        -0.21332
C         35.15752        28.77961        -0.81979
C         33.85924        29.53199        -0.59131
C         35.21132        31.63435        -0.18896
C         33.94935        30.94478        -0.21528
C         35.27875        32.96392         0.20407
C         34.05580        33.66587         0.61959
C         35.38049        35.87456         0.51569
C         34.10327        35.16837         0.80768
C         35.38052        37.31753         0.44066
C         34.11080        38.10815         0.69425
C         35.36320        40.17174        -0.02415
C         34.12479        39.49822         0.11053
C         35.38547        41.56378        -0.33329
C         34.15700        42.26145        -0.57434
C         35.47777        44.27904        -1.20744
C         34.16558        43.62321        -1.00701
C         35.50284        45.81231        -1.41970
C         34.22019        46.51160        -1.50241
C         35.44429        48.65006        -1.15966
C         34.20745        47.91134        -1.40337
C         35.41451        50.08572        -1.13630
C         34.18117        50.79032        -1.31399
C         35.39692        52.95161        -1.26856
C         34.16049        52.21239        -1.36025
C         35.43294        54.36086        -1.44160
C         38.06136        19.15483         1.45286
C         36.91300        18.58084         2.06745
C         37.93427        20.45435         0.88933
C         36.69621        21.14247         0.89159
C         37.70429        23.11514        -0.29238
C         36.59545        22.47749         0.33945
C         37.65580        24.49463        -0.56374
C         36.47587        25.23513        -0.32188
C         37.63277        27.33652        -0.91285
C         36.45035        26.65657        -0.58170
C         37.60076        28.80353        -1.25666
C         36.40903        29.54345        -0.74170
C         37.69920        31.62349        -0.53994
C         36.44809        30.90930        -0.49803
C         37.79693        33.00798        -0.18143
C         36.59815        33.62651         0.54022
C         37.83893        35.84421         0.76746
C         36.54928        35.13956         0.43469
C         37.84332        37.30748         0.35469
C         36.59150        38.01526         0.31125
C         37.81777        40.16060         0.13876
C         36.59716        39.45342         0.14242
C         37.83716        41.58296        -0.01703
C         36.62942        42.27322        -0.31618
C         37.88164        44.39328        -0.51409
C         36.67817        43.65834        -0.63437
C         37.88588        45.82325        -0.71721
C         36.72235        46.53003        -1.01124
C         37.86907        48.71402        -0.66200
C         36.66914        47.97457        -0.96472
C         37.82963        50.14252        -0.61914
C         36.61120        50.82601        -0.90820
C         37.81405        53.00295        -0.80870
C         36.60327        52.26146        -0.98922
C         37.83047        54.41147        -1.01203
C         36.61193        55.06354        -1.34272
C         40.56471        16.33169         1.30552
C         39.36271        17.01247         1.45300
C         40.53412        19.14114         1.06008
C         39.29119        18.41241         1.32441
C         40.43626        20.57111         0.47164
C         39.06701        21.01029         0.12622
C         40.20051        23.06393        -0.91392
C         38.94855        22.36205        -0.57049
C         40.05865        24.38422        -1.52964
C         38.76971        25.15237        -1.28927
C         40.03840        27.30993        -1.43049
C         38.84641        26.63280        -1.23085
C         40.16681        28.75677        -1.03009
C         38.87661        29.51444        -0.97547
C         40.11913        31.62911        -1.18845
C         38.90273        30.89417        -0.85195
C         40.34199        32.98831        -0.52938
C         39.00468        33.69507        -0.23966
C         40.34659        35.83916         0.11047
C         39.09239        35.05668         0.34374
C         40.30595        37.31066         0.27058
C         39.04794        38.00774         0.35965
C         40.24230        40.17386         0.53759
C         39.05662        39.46211         0.32985
C         40.26313        41.60419         0.48128
C         39.05762        42.31141         0.11396
C         40.26131        44.47500         0.26027
C         39.07119        43.71712        -0.06956
C         40.25719        45.86298         0.13583
C         39.20775        46.55433        -0.69804
C         40.23528        48.76812        -0.03297
C         39.08686        48.03492        -0.40877
C         40.18798        50.18725         0.04014
C         39.00905        50.88320        -0.28887
C         40.16454        53.08165        -0.12070
C         39.00372        52.33038        -0.38145
C         40.23040        54.47269        -0.43387
C         39.06676        55.14245        -0.89480
C         40.33293        57.21547        -1.14098
C         39.14857        56.52937        -1.22978
C         42.97390        16.28871         0.71360
C         41.76374        17.00318         0.93422
C         42.90173        19.09008         0.25058
C         41.76513        18.41353         0.75945
C         42.82920        20.47835        -0.17520
C         41.59365        21.15512        -0.21032
C         42.67534        23.12540        -1.25042
C         41.46909        22.45293        -0.81716
C         42.61980        24.46219        -1.88449
C         41.28519        25.13909        -1.94754
C         42.54813        27.41942        -2.00992
C         41.26401        26.64496        -1.92699
C         42.26233        28.79858        -2.33641
C         41.12430        29.48029        -1.93866
C         42.96862        32.07320        -2.01071
C         41.01039        30.91746        -1.97387
C         42.80567        33.31244        -1.37249
C         41.50629        33.91368        -1.00890
C         42.69105        36.11658        -0.70623
C         41.49678        35.23749        -0.60827
C         42.73205        37.42862        -0.02669
C         41.50135        38.02043         0.35038
C         42.74553        40.12910         1.03861
C         41.42900        39.36445         1.03287
C         42.71527        41.64055         1.01022
C         41.44694        42.34082         0.72572
C         42.69966        44.45488         0.81380
C         41.46832        43.76138         0.64977
C         42.69860        45.90388         0.99068
C         41.35613        46.66176         0.65626
C         42.64533        48.78873         0.61878
C         41.44612        48.09446         0.37655
C         42.66680        50.22939         0.63141
C         41.35222        50.91493         0.57902
C         42.59760        53.18932         0.67485
C         41.31146        52.43440         0.53769
C         42.66401        54.56718         0.14990
C         41.47380        55.19658        -0.31216
C         42.75411        57.26452        -0.62767
C         41.52141        56.56614        -0.69287
C         44.10919        16.95183         0.30910
C         45.27798        19.03076        -0.43636
C         44.10279        18.35171         0.04266
C         45.23082        20.42767        -0.73069
C         43.99796        21.13739        -0.66337
C         45.15359        23.23968        -1.36704
C         43.92520        22.50328        -1.11007
C         45.15290        24.64516        -1.57704
C         43.89483        25.33060        -1.93941
C         45.11242        27.55844        -1.88851
C         43.82745        26.83265        -1.98211
C         45.20665        29.02000        -1.85461
C         44.20289        29.91351        -2.28622
C         45.29278        31.85467        -1.26844
C         44.15129        31.28342        -1.90754
C         45.24953        33.25519        -0.93940
C         44.03709        33.95748        -1.01206
C         45.26181        36.08924        -0.42490
C         44.04502        35.41085        -0.87026
C         45.22598        37.45401        -0.07807
C         43.96657        38.12120         0.14019
C         45.20091        40.20618         0.64414
C         43.99301        39.46996         0.61124
C         45.19738        41.64054         0.80171
C         43.98379        42.35891         0.80843
C         45.19095        44.49337         0.96449
C         43.95650        43.77389         0.83234
C         45.18706        45.94838         0.91244
C         43.93835        46.66791         0.86009
C         45.11526        48.82953         0.68273
C         43.89779        48.07790         0.77464
C         45.12841        50.23426         0.66029
C         43.86797        50.93401         0.71503
C         45.16506        53.13697         0.61046
C         43.89367        52.41125         0.82222
C         45.14258        54.54517         0.45159
C         43.89435        55.25318         0.15340
C         43.90866        56.62073        -0.23908
C         47.63597        18.99665        -1.03974
C         46.50012        18.33791        -0.62409
C         47.62995        20.39520        -1.27133
C         46.42054        21.11792        -1.12487
C         47.61592        23.25141        -1.52483
C         46.39322        22.54000        -1.33346
C         47.60922        24.67620        -1.60224
C         46.36533        25.38110        -1.61846
C         47.60627        27.51612        -1.58659
C         46.32903        26.83024        -1.70266
C         47.63073        28.91577        -1.41458
C         46.42607        29.67435        -1.43126
C         47.71632        31.72783        -0.65777
C         46.45335        31.07550        -1.15959
C         47.70482        33.24405        -0.67327
C         46.48183        33.95004        -0.65369
C         47.70550        36.04528        -0.17984
C         46.47979        35.35721        -0.41697
C         47.69257        37.44526         0.08157
C         46.45662        38.14632         0.17187
C         47.69028        40.24606         0.60905
C         46.45358        39.53707         0.46205
C         47.67949        41.65679         0.85199
C         46.43578        42.35637         0.87996
C         47.65877        44.48241         1.31159
C         46.39931        43.77477         1.03679
C         47.65912        46.00882         1.16940
C         46.38628        46.65076         0.83537
C         47.68605        48.85406         0.60091
C         46.37280        48.08545         0.52790
C         47.59790        50.29652         0.83945
C         46.38569        50.96981         0.73094
C         47.60837        53.16139         0.80554
C         46.38671        52.43242         0.73401
C         47.56659        54.56736         0.68555
C         46.37357        55.23811         0.48604
C         50.05274        20.40561        -1.83558
C         48.84815        21.09949        -1.59433
C         50.08445        23.22129        -1.76981
C         48.84650        22.52193        -1.62607
C         50.07606        24.64298        -1.79845
C         48.86599        25.37913        -1.70630
C         50.11631        27.53574        -1.58100
C         48.86096        26.80997        -1.64199
C         50.17174        28.90545        -1.44494
C         48.91086        29.64338        -1.48765
C         50.24143        31.83599        -1.16487
C         48.92984        31.12536        -1.33581
C         50.20786        33.27557        -0.78066
C         48.91322        33.94531        -0.53730
C         50.17945        36.02982        -0.07045
C         48.93456        35.33415        -0.26188
C         50.15198        37.41196         0.14579
C         48.92622        38.14136         0.25214
C         50.17580        40.23001         0.76396
C         48.92534        39.54353         0.50370
C         50.16056        41.65956         1.03363
C         48.92669        42.36396         1.01033
C         50.15077        44.50227         1.21146
C         48.94006        43.77482         1.17968
C         50.12676        45.94545         1.05630
C         48.95092        46.67821         0.91603
C         50.15415        48.82844         0.80191
C         48.96596        48.11991         0.79502
C         50.17891        50.26222         1.17008
C         48.83205        51.01791         1.20823
C         50.08583        53.12500         1.16092
C         48.86878        52.47804         1.05508
C         51.25279        21.08478        -1.97612
C         52.59356        23.17024        -1.80620
C         51.30970        22.48607        -1.88131
C         52.62189        24.57656        -1.73040
C         51.37227        25.33039        -1.94770
C         52.65681        27.45191        -1.29900
C         51.40447        26.82880        -1.79460
C         52.67054        28.86001        -1.04698
C         51.49098        29.66555        -1.53333
C         52.60999        31.69260        -0.47878
C         51.46831        31.05731        -0.92686
C         52.61173        33.12081        -0.14347
C         51.43518        33.88790        -0.25556
C         52.65253        35.91167         0.30410
C         51.42933        35.28042        -0.00626
C         52.70793        37.37695         0.30731
C         51.41531        38.15770         0.22223
C         52.60177        40.09647         1.37503
C         51.37697        39.54591         0.69878
C         52.63797        41.62020         1.39157
C         51.37236        42.36961         1.22625
C         52.66694        44.49037         1.16054
C         51.39928        43.78728         1.22624
C         52.66227        45.98934         1.34315
C         51.40842        46.61843         0.78006
C         52.71176        48.86869         0.64220
C         51.41684        48.11683         0.59434
C         52.71471        50.36769         0.81982
C         51.41368        51.05903         1.06635
C         51.32931        52.42621         1.17730
C         55.01791        23.13687        -1.54830
C         53.81856        22.46604        -1.72395
C         55.06000        24.53791        -1.38651
C         53.83502        25.26488        -1.46959
C         55.00437        27.25030        -0.53116
C         53.80547        26.67246        -1.15319
C         55.00022        28.73842        -0.19647
C         53.80637        29.51316        -0.56970
C         55.02702        31.54328         0.10638
C         53.84931        30.93527        -0.34150
C         54.99523        32.94425         0.57179
C         53.79734        33.75716         0.30823
C         55.10137        35.85386         0.76659
C         53.83999        35.15916         0.49748
C         55.10992        37.27462         0.90550
C         53.93058        38.03481         0.80505
C         55.16066        40.13064         1.04837
C         53.91201        39.42903         1.00530
C         55.15062        41.59372         0.74777
C         53.92835        42.35996         1.15786
C         55.11425        44.53952         0.78884
C         53.86884        43.82839         0.99318
C         55.13843        45.97626         0.78192
C         53.93242        46.70670         0.93010
C         55.20218        48.82458         0.84300
C         53.96277        48.10489         0.84244
C         55.15971        50.25111         1.12239
C         54.00546        50.95765         1.22915
C         57.57264        24.57563        -1.26960
C         56.31833        25.23338        -1.13659
C         57.50564        27.29039        -0.46266
C         56.30201        26.58046        -0.72113
C         57.50938        28.69950        -0.13958
C         56.29175        29.44026        -0.07178
C         57.53153        31.53235         0.33743
C         56.28181        30.83099         0.14465
C         57.56786        32.93901         0.57066
C         56.31275        33.67154         0.82782
C         57.58961        35.83059         0.89814
C         56.32018        35.14482         0.82938
C         57.63231        37.24668         1.05692
C         56.35081        37.96667         1.40537
C         57.62841        40.17602         1.17931
C         56.35297        39.43753         1.07587
C         57.70841        41.65804         0.91834
C         56.41889        42.35256         0.50273
C         57.39343        44.59700         0.04150
C         56.29830        43.84184         0.50203
C         57.52678        45.96307         0.20145
C         56.36357        46.68948         0.57871
C         57.72411        48.73695         0.58529
C         56.41244        48.10955         0.69832
C         58.74971        25.23717        -0.99519
C         59.96483        27.29663        -0.36582
C         58.74534        26.60080        -0.59963
C         59.96339        28.63938        -0.07357
C         58.74820        29.38103         0.01634
C         59.97411        31.53327         0.31793
C         58.75627        30.80856         0.23709
C         59.99112        32.90295         0.46798
C         58.78771        33.64275         0.60783
C         60.02473        35.80073         0.87088
C         58.80785        35.09320         0.79829
C         60.05080        37.18560         0.98018
C         58.85900        37.92966         1.08394
C         60.04032        40.14599         1.71493
C         58.94127        39.44077         0.94980
C         60.09658        41.49666         1.66164
C         59.09743        42.25780         0.91030
C         60.26725        44.55022         0.77471
C         59.34044        43.50127         0.37671
C         60.02862        45.88081         0.62001
C         58.87203        46.59345        -0.10582
C         58.84377        48.06304         0.24060
O         41.77251        46.34889         2.02118
O         40.12194        35.12639         1.42318
O         34.20926        34.30100         1.98250
O         50.38765        32.87436        -2.20472
O         47.60432        45.35349         2.48900
O         57.56651        41.11829         2.29763
O         48.79708        30.62384        -2.68273
O         31.91611        35.67084         1.91710
O         58.41718        43.90079        -0.61019
O         29.31228        26.92557        -1.04741
O         34.32169        29.19997        -1.96317
O         41.06056        25.87395        -3.17173
O         52.79863        49.77054        -0.52340
O         51.45192        47.18291        -0.55287
O         40.66706        20.35349         1.88970
O         53.47482        42.04010         2.52974
O         43.34709        24.63362        -3.12712
O         39.01654        24.47608        -2.56125
O         43.19525        52.98930         1.98826
O         29.96753        35.38461        -1.31898
O         26.36282        39.79704         1.58806
O         41.92858        31.58479        -2.78601
O         51.47249        26.22560        -3.12664
O         26.24298        44.53022         0.95620
O         42.83003        40.88924         2.29448
O         25.69494        33.00191        -0.86197
O         49.45589        50.51049         2.43290
O         47.09963        48.45699        -0.70398
O         55.64843        41.80071        -0.62291
O         52.27005        37.97001        -0.97862
O         28.54407        48.29336        -3.11406
O         35.72259        44.86107        -2.51938
O         43.36888        36.09389        -1.99123
O         54.77372        27.72586         0.84514
O         38.79155        21.08912        -1.30274
O         29.56423        24.33778        -0.54585
O         43.19614        29.46201        -3.13435
O         40.97424        51.71044         1.75871
O         55.52008        33.10146         1.93874
O         31.61918        47.21885        -3.14897
O         40.82682        32.58680         0.80524
H         40.71160        33.37993         1.39079
O         52.41285        39.69167         2.77856
H         52.97776        40.29657         3.31504
O         27.25012        23.49276         0.09392
H         28.00498        23.30724        -0.51586
O         52.54231        46.21084         2.79004
H         53.18882        45.62884         3.24298
O         33.26746        45.31172        -3.33227
H         32.94865        46.07443        -3.86990
O         34.07233        38.30912         2.16131
H         33.96306        37.42682         2.57915
O         40.75556        28.75384         0.32294
H         40.70800        29.67488         0.66271
O         59.20864        39.65306        -0.47753
H         60.01247        39.14474        -0.71537
O         37.83473        35.90655         2.22731
H         38.77913        35.85734         2.51163
O         59.13601        46.48175        -1.52803
H         59.05518        45.52736        -1.75381
O         36.82854        33.32192         1.95321
H         36.08553        33.74514         2.44774
O         56.27369        37.90025         2.88528
H         56.16531        36.95505         3.12676
O         37.44281        28.85270        -2.73477
H         36.50333        28.64786        -2.93905
O         26.34063        38.16629        -1.69298
H         26.28560        37.23716        -2.03066
O         28.11697        31.95774         2.44625
H         29.02063        32.33135         2.53590
O         47.88922        31.35485         0.75490
H         47.12401        31.70941         1.25545
O         26.24562        35.32481        -1.70349
H         25.75553        34.49892        -1.94327
O         39.71610        46.47156        -2.08839
H         38.97279        46.70156        -2.68663
O         41.11615        39.03478         2.42003
H         41.47355        39.77438         2.96714
O         51.69849        29.89879        -2.96383
H         50.89586        30.36504        -3.29669
H         22.18322        26.97616         2.70790
H         22.12065        29.40582         2.35369
H         22.06150        31.29966         1.90339
H         22.05945        33.68604         1.58081
H         22.13089        35.58438         1.53339
H         22.15468        38.00106         1.33472
H         22.05598        39.83271         0.55846
H         22.10453        42.23041         0.25072
H         22.07788        43.93428        -0.62960
H         22.08950        46.27840        -1.32911
H         25.43707        23.52991         2.06047
H         23.38613        24.82043         2.59861
H         25.41999        49.60705        -2.13691
H         23.28296        48.35401        -1.89501
H         27.38227        23.07850         2.93901
H         27.06541        50.62898        -1.23079
H         29.55789        22.04117         3.07153
H         29.19103        51.80106        -1.10481
H         33.18547        19.64067         2.56311
H         31.05930        20.80633         2.59740
H         32.88195        53.97604        -1.53041
H         30.79009        52.74049        -1.61725
H         34.86212        18.77325         2.60212
H         34.51411        54.91138        -1.68059
H         36.98737        17.59061         2.53716
H         36.59079        56.14962        -1.49939
H         40.58962        15.24000         1.43041
H         38.45078        16.43997         1.67272
H         40.38139        58.27697        -1.42309
H         38.25649        57.05903        -1.58846
H         42.99194        15.20081         0.86964
H         42.78385        58.32488        -0.91640
H         45.02747        16.36986         0.15843
H         44.84898        57.18651        -0.23687
H         48.56269        18.42077        -1.15654
H         46.56332        17.26000        -0.42922
H         48.49429        55.15131         0.74314
H         46.40103        56.33057         0.38756
H         50.06168        19.30988        -1.89318
H         50.13398        54.22158         1.12453
H         52.16939        20.50210        -2.13380
H         52.24838        53.02915         1.15779
H         55.94250        22.54775        -1.48816
H         53.83645        21.37089        -1.79509
H         56.10781        50.75543         1.35949
H         54.03379        52.00226         1.57104
H         57.61381        23.52952        -1.60054
H         57.79732        49.81944         0.76855
H         59.71252        24.71687        -1.10099
H         60.91504        26.74943        -0.44640
H         60.92647        29.14240         0.08170
H         60.93482        31.00922         0.23636
H         60.96256        33.41270         0.49554
H         60.98223        35.26735         0.81441
H         61.01950        37.70688         0.99092
H         60.80752        39.57029         2.25266
H         60.94082        42.03852         2.11619
H         61.15795        44.24931         1.35022
H         60.79294        46.55847         1.03703
H         59.79229        48.61382         0.14489
