         276
 CSIRO Nanostructure Databank - Neutral Graphene Oxide Data Set
C        -11.20358         0.74895        -0.72141
C        -10.06545         1.65311        -0.30493
C         -8.87629         0.85718         0.27466
C         -7.55835         1.58571         0.46977
C         -6.29341         0.79912         0.86247
C         -4.94459         1.39837         0.55806
C         -3.70986         0.52913         0.45613
C         -2.36901         1.22009         0.36607
C         -1.07307         0.50474         0.71403
C          0.24287         1.34191         0.92337
C          1.26294         0.67438         1.85268
C          2.53031         1.42798         2.18201
C          3.92269         0.69021         2.27619
C          5.04589         1.47939         1.49887
C          5.92100         0.72056         0.52652
C          6.77181         1.41423        -0.48241
C          8.01470         0.72830        -0.99177
C          8.54752         1.30355        -2.29735
C          9.75005         0.52586        -2.79337
C         -9.66605         2.55828        -1.46780
C         -8.55322         3.47833        -1.05406
C         -7.40162         2.86505        -0.31550
C         -6.04851         3.35810        -0.75374
C         -4.82083         2.66866        -0.26750
C         -3.55263         3.47404        -0.07100
C         -2.27596         2.71004         0.14568
C         -1.04410         3.50265         0.45046
C          0.04288         2.83210         1.25529
C          1.21054         3.63776         1.76991
C          2.53405         2.99719         2.29047
C          3.84615         3.74173         1.87475
C          5.05655         2.97458         1.40306
C          5.89904         3.69757         0.35588
C          6.75487         2.91679        -0.59300
C          7.92291         3.57853        -1.23964
C          8.94929         2.78152        -2.03686
C         -8.54565         4.79206        -1.35766
C         -7.27461         5.56720        -1.37024
C         -5.99876         4.79604        -1.22250
C         -4.68956         5.60740        -1.08334
C         -3.50781         4.94009        -0.40018
C         -2.19325         5.72753        -0.48562
C         -1.04617         5.02729         0.23384
C          0.02014         5.83083         0.91642
C          1.20799         5.15511         1.57606
C          2.54069         5.83326         1.24144
C          3.87420         5.22586         1.57834
C          5.20456         6.04209         1.28301
C          6.38426         5.11167         0.75936
C          7.20230         5.78788        -0.35841
C          8.07723         4.92342        -1.13856
C         -7.27182         7.05019        -1.23501
C         -6.19568         7.71158        -0.72374
C         -5.05998         6.86442        -0.23660
C         -3.36984         8.22918        -1.14648
C         -2.12245         7.32365        -0.94152
C         -1.01352         8.06521        -0.12673
C          0.09473         7.29898         0.54014
C          1.26825         7.94020         1.26109
C          2.51772         7.27027         0.78782
C          3.75780         8.03229         0.37770
C          5.06626         7.33006         0.47652
C          6.37203         8.10870         0.27423
C          7.25709         7.13772        -0.49933
C         -6.14434         9.15183        -0.48491
C         -5.02492         9.88213        -0.21918
C         -3.64753         9.38819        -0.24966
C         -2.58419        10.10458         0.19550
C         -1.20725         9.50938         0.42236
C         -0.05741        10.43318         0.01295
C          1.18128        10.05131        -0.26730
C          2.41704         9.83837        -0.69545
C          3.65921         9.55549         0.16924
C          4.92273        10.02871        -0.52625
C          6.09712         9.38402        -0.50116
C        -11.06472        -0.54888        -1.00444
C         -9.73296        -1.25208        -0.92587
C         -8.85545        -0.63553         0.16965
C         -7.64882        -1.42494         0.67511
C         -6.38468        -0.70727         1.09251
C         -5.08013        -1.46005         1.49572
C         -3.79559        -0.93296         0.84817
C         -2.51866        -1.67918         1.14196
C         -1.18688        -0.94629         1.13234
C         -0.03172        -1.59266         1.83678
C          1.29500        -0.83654         1.85553
C          2.59285        -1.54738         1.68788
C          3.90555        -0.81629         1.80346
C          5.13314        -1.51737         1.31064
C          6.31731        -0.64732         0.99280
C          7.56982        -1.31258         0.54124
C          8.40040        -0.64023        -0.53174
C          9.07464        -1.54840        -1.56860
C         10.01197        -0.74058        -2.44476
C         -9.92787        -2.76027        -0.75445
C         -8.62317        -3.49721        -0.56234
C         -7.62738        -2.91333         0.39188
C         -6.36669        -3.67366         0.66310
C         -5.16532        -3.01114         1.30803
C         -3.88729        -3.79632         1.42644
C         -2.59134        -3.07903         1.72538
C         -1.32659        -3.87838         1.92916
C         -0.01045        -3.09245         1.97508
C          1.24108        -3.72962         1.38983
C          2.48510        -2.92164         1.07646
C          3.73793        -3.56143         0.49184
C          5.04554        -2.80176         0.50389
C          6.35372        -3.53331         0.20709
C          7.54578        -2.81891         0.80956
C          9.18524        -3.93368        -0.87195
C          9.75481        -2.73833        -0.90387
C         -8.48651        -4.75473        -1.02856
C         -7.43640        -5.68278        -0.46076
C         -6.10745        -4.90203        -0.21426
C         -5.02073        -5.81713         0.36556
C         -3.74082        -5.15634         0.80238
C         -2.48106        -5.95795         0.98059
C         -1.33044        -5.43870         1.87965
C          0.05055        -6.07473         1.46042
C          1.32649        -5.23127         1.32306
C          2.55730        -5.84752         0.71294
C          3.74374        -5.03777         0.24067
C          5.05544        -5.77108         0.02031
C          6.36090        -5.02907        -0.06567
C          7.69139        -5.83660        -0.01319
C          8.71534        -5.16177        -0.95184
C         -7.21810        -6.97081        -1.20825
C         -5.85518        -7.57195        -1.31181
C         -4.97874        -7.23112        -0.09842
C         -3.77361        -8.09175         0.17160
C         -2.54493        -7.45848         0.78263
C         -1.24536        -8.20866         0.66341
C          0.05765        -7.46668         0.87808
C          1.16088        -7.92501        -0.06794
C          2.49302        -7.20915         0.07583
C          3.78491        -7.93583        -0.06920
C          5.10505        -7.27684         0.37704
C          6.28058        -7.91929        -0.35433
C          7.44164        -7.24545        -0.51918
C         -5.83150        -9.03428        -1.68924
C         -4.78515        -9.83252        -1.42718
C         -3.66977        -9.42095        -0.53186
C         -2.34370       -10.03397        -0.66984
C         -1.20080        -9.48067        -0.12264
C          0.05876       -10.12838        -0.27711
C          1.28020        -9.43542        -0.11560
C          2.49357       -10.09963        -0.16904
C          3.82704        -9.44540         0.06330
C          4.98522        -9.99196        -0.74223
C          6.12006        -9.27573        -0.87444
O         -1.08139         5.17384        -1.21547
O          0.23412         7.76349        -0.83228
O         -9.46029         0.02100         1.32574
O         -2.04082        -8.25440         1.87836
O         -6.53756         5.01959        -2.56370
O          3.44356        -4.11504        -0.82747
O         -4.82495        -3.73411         2.53003
O          5.44970         3.50027        -0.99697
O          4.75965        -1.63648         2.68988
O          9.11181         0.52619        -0.03629
O          2.35204         6.17694        -0.16708
O         -5.50991         1.49875         1.88286
O          1.51135         1.08097         3.20231
O          2.00866        -1.38585         3.00302
O         -7.47768        -3.75305         1.58870
O          0.62394        -7.58573        -1.42600
O          7.49323        -0.65507         1.84193
O          5.62436        -5.42311        -1.26002
O         -4.14358        -9.31027         0.86880
O          4.34345         7.31672        -0.76818
O         -7.40026        -1.08623         2.06697
O         -3.18670        -1.76223        -0.16416
O         -0.78798        -0.57457        -0.21696
O          8.25198        -3.30879         1.67533
O         -1.22541         2.87569        -0.85812
O          5.83400         2.29616         2.42278
O          2.39312        -5.79210         2.15687
O         -7.62600         2.87582         1.13400
O          5.19087        -7.45146         1.75920
O          0.09035         3.22267         2.63585
O          3.19895        -7.30959        -1.21960
O          7.30885         4.94107         1.77617
O         -3.95425         8.22592        -2.21780
O         -3.03991         0.67712        -0.81728
O         -5.58108        -6.88370         1.18744
O         -3.76996         4.49627         0.96050
O          1.41721        -3.05890         0.09036
O          0.37029        -7.25606         2.26481
O         -2.14393        -3.38534         3.04808
O         -0.11748        -2.23399         3.13886
O          1.28659         8.76223         2.16934
O         -4.56013         7.04194         0.86201
O         -5.29212         2.46015        -1.63014
O          4.06070         4.73183         2.91450
O         -2.70294        -5.20572        -0.24085
O          5.68744        -2.70564        -0.78671
O          5.51578         0.76300        -0.86988
O          0.18221         5.78602         2.37767
O         -1.23918         9.41048         1.86934
H         -0.31958         9.42244         2.23610
O          7.48877         1.25688        -3.26553
H          7.85391         1.46223        -4.14980
O          6.98727         8.49585         1.50636
H          6.74920         7.81767         2.18915
O         -9.17042         1.72159        -2.53041
H         -8.80995         2.29138        -3.24206
O          0.54812        -6.13794        -1.48042
H          1.32154        -5.89709        -2.05105
O        -10.52819         2.52733         0.73607
H        -10.57368         2.00258         1.56427
O          7.98196        -2.02223        -2.37512
H          8.32406        -2.66182        -3.03242
O         -1.65323        -5.91132         3.17931
H         -0.93678        -5.68083         3.80520
O         -5.14132        -6.87861        -2.41942
H         -5.59667        -7.10643        -3.25873
O         -9.00481        -1.07470        -2.16462
H         -9.08725        -0.12870        -2.44430
O          8.19837        -5.95686         1.30886
H          8.39027        -5.05733         1.67384
O          5.62419         6.51127         2.57142
H          6.32670         5.86027         2.86590
O         -4.21855         5.88282        -2.39340
H         -4.99206         5.96502        -2.99794
O          2.50024         3.24642         3.70434
H          1.71391         2.78049         4.06918
O          0.93201         1.32404        -0.34557
H          0.28813         1.58002        -1.04896
O         -4.89258        -1.18892         2.88549
H         -5.72005        -1.43381         3.35619
O          3.57309        10.21389         1.43265
H          2.73842         9.94529         1.88237
O          4.04371        -9.73374         1.46209
H          4.57766        -8.95999         1.85746
O        -10.74994        -3.01457         0.38990
H        -10.23185        -2.83761         1.20315
O         -8.02936        -6.16605         0.76811
H         -7.32205        -6.60999         1.30106
O         10.20836         2.81001        -1.35746
H         10.13630         2.25555        -0.54882
O         -5.63713        -4.36530        -1.45942
H         -5.30212        -5.11136        -2.01985
O         -1.67028         7.27174        -2.28669
H         -0.80732         6.79971        -2.30917
O          4.28839         0.66120         3.64154
H          4.76970         1.49195         3.85671
H         10.90143        -1.24673        -2.85156
H         10.43814         1.05583        -3.47132
H          9.10542         3.28783        -3.02653
H          8.91260         5.40524        -1.67069
H          7.90603         7.55287        -1.28904
H          6.96064         9.83312        -1.01770
H          4.85016        10.98322        -1.07090
H          2.56078         9.70183        -1.78332
H         -0.26917        11.51616         0.08144
H         -2.75506        11.07223         0.69641
H         -5.15603        10.94619         0.03626
H         -7.11272         9.67712        -0.49756
H         -8.17926         7.59626        -1.53810
H         -9.41936         5.24925        -1.85002
H        -10.55171         3.14668        -1.82792
H        -12.19231         1.22763        -0.79071
H        -11.93750        -1.14707        -1.30649
H        -10.46560        -3.16208        -1.64773
H         -9.27598        -5.18972        -1.66052
H         -8.08466        -7.65213        -1.24708
H         -6.66090        -9.40588        -2.31052
H         -4.77459       -10.86729        -1.80287
H         -2.25411       -10.94464        -1.28200
H          0.07658       -11.18689        -0.57932
H          2.47741       -11.20029        -0.10884
H          4.91773       -11.01395        -1.14298
H          6.97889        -9.70884        -1.41129
H          8.28551        -7.75100        -1.01735
H          9.07800        -5.78620        -1.79043
H         10.68243        -2.55458        -0.33421
