         320
 CSIRO Nanostructure Databank - Neutral Graphene Oxide Data Set
C         30.72121        31.54802        -1.46577
C         30.64626        32.80001        -1.45117
C         30.59297        35.92219        -0.57941
C         30.34967        37.13259        -0.21766
C         30.42437        40.41641        -0.59774
C         30.42117        41.64291        -0.69653
C         32.69942        28.69402         0.10482
C         31.76642        29.29332        -0.55841
C         32.74009        31.45840        -0.22269
C         31.61580        30.63644        -0.85403
C         32.76830        32.95770        -0.29536
C         31.83722        33.70302        -1.31056
C         32.97201        35.91860        -0.73874
C         31.66742        35.10599        -0.83226
C         32.76716        37.29017        -0.05219
C         31.54489        38.08119        -0.65780
C         32.79756        40.28875        -0.39297
C         31.46732        39.48983        -0.05723
C         32.80816        41.80189        -0.08271
C         31.41488        42.58115        -0.05037
C         32.78457        44.46647        -0.64002
C         31.69126        43.90451        -0.69845
C         35.66976        27.14643        -0.22572
C         35.32867        28.50827         0.26848
C         34.09709        29.22007        -0.29826
C         35.30447        31.50874        -0.44883
C         34.05685        30.74084         0.15772
C         35.30927        32.98333        -0.11440
C         34.02583        33.69306         0.25503
C         35.30056        35.84590         0.16108
C         34.09952        35.16209        -0.09044
C         35.25135        37.34675         0.53101
C         34.05389        38.06820        -0.03470
C         35.29068        40.29353         0.25582
C         34.00084        39.52797         0.13898
C         35.29274        41.79005         0.12301
C         34.00467        42.47257        -0.08400
C         34.92727        44.74898         0.66074
C         34.17954        44.00075        -0.42901
C         35.44439        46.07828         0.35059
C         38.09050        27.19763        -0.57374
C         36.80141        26.63330        -0.26885
C         38.08259        28.68607        -0.05201
C         36.75051        29.36934        -0.45138
C         37.91103        31.62834        -0.31597
C         36.62436        30.81964         0.03764
C         37.70682        32.99201        -0.60400
C         36.47651        33.71555        -0.26291
C         37.81465        35.86487        -0.06397
C         36.51084        35.11890         0.12795
C         37.78762        37.34465         0.58257
C         36.53039        38.10570         0.26480
C         37.75446        40.25381         0.27616
C         36.55850        39.51228         0.15800
C         37.71731        41.70515         0.53938
C         36.44905        42.47100         0.42369
C         37.71998        44.72965         0.22785
C         36.56534        43.92141         0.93343
C         37.79316        46.24263         0.79359
C         36.45640        46.80341         0.28221
C         40.79469        24.80351        -0.78600
C         39.67189        25.22861        -1.07550
C         40.97656        27.69423        -0.57863
C         39.12745        26.56280        -1.17418
C         40.61556        28.93397        -0.01137
C         39.32930        29.58938        -0.49963
C         40.04662        31.62809         1.11122
C         39.14658        31.01828         0.00916
C         40.22749        33.13896         1.04041
C         39.13597        34.02274         1.23572
C         40.36204        35.87180         0.05327
C         39.07860        35.22891         0.46969
C         40.35941        37.41961         0.37340
C         39.00619        38.09681         0.01653
C         40.26249        40.26087        -0.25500
C         39.05628        39.55844         0.51974
C         40.28032        41.78196        -0.03651
C         39.03301        42.49113         0.43008
C         40.23368        44.63820        -0.28319
C         39.05709        44.04508         0.54671
C         40.26934        46.17088        -0.25848
C         39.08459        46.95412         0.34963
C         40.39510        48.81732         1.69053
C         39.59408        48.12140         1.06334
C         43.19412        24.75110         0.14928
C         42.18263        25.40808        -0.73796
C         42.65625        27.26985         1.08699
C         41.97418        26.82811        -0.07872
C         42.32618        28.53249         1.61503
C         41.39990        29.42855         1.04650
C         42.70174        31.63055         1.68005
C         41.38141        30.88354         1.40624
C         42.74973        33.10991         1.35201
C         41.56141        33.71317         0.58363
C         42.82469        35.97644         0.58083
C         41.52605        35.24213         0.84609
C         42.84965        37.36420         0.19547
C         41.60084        38.09317        -0.27460
C         42.77101        40.26131         0.08227
C         41.59916        39.58383         0.04306
C         42.86027        41.74766         0.41782
C         41.58763        42.50993         0.07762
C         42.80457        44.66589        -0.40856
C         41.57979        44.02643         0.30207
C         42.77944        46.13635        -0.03614
C         41.61108        46.81401        -0.31637
C         42.81036        48.87141         1.63921
C         41.60122        49.37671         2.18893
C         43.81960        25.18460         1.11384
C         45.10992        27.28081         2.04489
C         43.83306        26.53355         1.69083
C         45.23606        28.78019         1.82207
C         44.17980        29.56117         2.17909
C         45.39248        31.68033         1.61825
C         44.10926        31.05286         2.18731
C         45.37960        33.14364         1.25346
C         44.05102        33.86208         1.19480
C         45.25409        35.89704         0.33704
C         44.04882        35.26073         0.64426
C         45.35298        37.39483         0.43410
C         44.03151        38.07164         0.17410
C         45.32087        40.23554         0.13806
C         44.03960        39.51261        -0.30418
C         45.33076        41.71438        -0.16592
C         44.04036        42.42800        -0.37607
C         45.27917        44.53954         0.24666
C         44.09156        43.91752        -0.10710
C         45.21744        45.99072         0.74694
C         43.93421        46.77475         0.62981
C         43.61897        48.13660         1.06220
C         47.46706        27.26325         1.48963
C         46.44450        26.69956         1.87307
C         47.63637        28.55109         0.73584
C         46.42636        29.41883         1.22437
C         47.65624        31.43593         0.40154
C         46.48668        30.78839         1.09951
C         47.75416        32.93103         0.21814
C         46.56308        33.77093         0.53947
C         47.73626        35.78536        -0.30959
C         46.38617        35.07218        -0.22481
C         47.76411        37.27077        -0.37803
C         46.43685        37.99292        -0.50553
C         47.76063        40.15808        -0.42985
C         46.57741        39.49288        -0.29349
C         47.75425        41.68558        -0.56515
C         46.52813        42.40469        -0.01701
C         47.85224        44.38211         0.78353
C         46.51564        43.79883         0.27369
C         47.63245        45.86469         0.70745
C         46.59095        46.50909         0.84331
C         50.19093        28.66247         0.43302
C         48.95208        29.28666         1.02053
C         50.28963        31.35390         0.07690
C         48.93843        30.66232         0.28732
C         50.18814        32.75635        -0.54718
C         48.88079        33.49119        -0.63285
C         50.19947        35.68791        -0.90714
C         48.84674        35.00055        -1.01179
C         50.22786        37.16341        -1.05399
C         48.97245        37.98517        -0.91293
C         50.22422        40.14725        -0.86156
C         49.03970        39.47442        -0.70503
C         50.24006        41.68164        -0.89815
C         49.09235        42.24055        -0.03148
C         50.31527        44.24678        -0.00332
C         49.04792        43.79961         0.07327
C         51.19873        29.11816        -0.11964
C         52.49514        31.27951        -0.92797
C         51.24866        30.43660        -0.86572
C         52.48559        32.51391        -0.98943
C         51.52229        33.58261        -0.55576
C         52.56438        35.78335        -1.31685
C         51.40039        34.84124        -1.41803
C         52.57305        37.01275        -1.27115
C         51.53369        37.96448        -0.76574
C         52.66258        40.21899        -0.94916
C         51.47836        39.36906        -1.36393
C         52.66361        41.43662        -0.71335
C         51.63608        42.38764        -0.49875
C         51.49290        43.70838        -0.21819
O         41.01711        42.26684        -1.21391
O         49.38648        32.71743        -1.75063
O         36.70517        43.93041         2.27040
O         47.55588        41.96989        -1.92755
O         47.72014        33.74576         1.42922
O         39.31520        46.92013        -1.07928
O         49.43364        37.59155        -2.23496
O         43.03493        28.97698         2.75043
O         44.20216        26.80201         3.04447
O         40.09765        40.11004        -1.63433
O         44.36863        46.07355         1.89415
O         43.29835        33.86753         2.46133
O         48.05559        36.56578         0.88110
O         45.82273        32.71369         2.55951
O         32.11930        32.29523         0.81589
O         48.03700        30.73396        -0.82912
O         40.20468        27.33106        -1.69091
O         41.74792        31.29213         2.75182
O         38.55810        42.01076         1.71895
O         34.50655        39.93250         1.47501
O         42.64130        25.58687        -2.04753
H         42.66764        24.72461        -2.50910
O         50.93618        31.45436         1.36600
H         51.68237        30.81544         1.39861
O         34.93454        44.07734        -1.63674
H         34.39482        43.72219        -2.37331
O         45.30673        40.27266         1.60654
H         45.49365        39.34925         1.94065
O         41.61072        38.01625        -1.73416
H         41.01976        38.78956        -2.02946
O         41.17945        35.34347         2.24549
H         41.99160        35.13841         2.76905
O         32.96210        40.25726        -1.82634
H         32.10409        40.50255        -2.23923
O         31.56275        38.16993        -2.04493
H         32.07085        37.40476        -2.41673
O         51.16790        34.47352        -2.76954
H         51.20638        35.28484        -3.31932
O         34.11361        30.77109         1.58068
H         33.94643        31.70706         1.87469
O         41.59650        48.12965        -0.64331
H         40.70780        48.31678        -1.03142
O         35.42681        28.52038         1.65311
H         34.93824        29.30886         2.00923
O         32.56341        33.70044        -2.57467
H         31.90683        33.76630        -3.30043
O         36.60862        30.86439         1.46199
H         37.40218        30.37164         1.79478
O         39.24056        31.32887         2.30947
H         39.86515        31.33438         3.07469
O         41.79961        33.38419        -0.80658
H         41.45429        34.14205        -1.35012
O         47.48397        28.29026        -0.64313
H         48.35987        28.07948        -1.03023
O         45.77004        37.66478         1.82130
H         46.64212        37.20981         1.94709
O         46.03484        37.71448        -1.86917
H         45.35140        38.39177        -2.12968
O         34.15234        29.14631        -1.71603
H         34.21937        28.19841        -1.96232
O         38.64852        33.62369        -1.31439
H         39.45652        33.06918        -1.39743
O         32.44713        36.97215         1.32390
H         32.29031        37.82499         1.79703
O         38.75765        38.10406        -1.38736
H         39.05962        38.98410        -1.77683
O         45.96773        34.72045        -1.56725
H         46.01354        35.54152        -2.11278
O         37.86111        37.14980         1.99941
H         36.93178        37.12113         2.35179
O         44.04209        39.47697        -1.76641
H         43.17908        39.07366        -2.04251
O         42.65097        44.62080        -1.83885
H         42.32268        43.72582        -2.09503
O         49.06853        29.49391         2.40948
H         49.83442        30.08438         2.58140
O         31.06934        42.75805         1.28894
H         30.31797        43.38037         1.35755
O         38.17780        28.61600         1.37380
H         37.37020        28.15654         1.71275
O         41.78828        44.37380         1.66289
H         41.01924        44.07503         2.20663
O         35.13163        37.30692         2.01753
H         34.88322        38.23138         2.27773
O         37.77455        46.30425         2.19015
H         37.16984        45.57704         2.51935
O         40.07844        44.33078        -1.66428
H         39.21178        44.70589        -1.95329
O         35.19357        31.43117        -1.89537
H         35.59231        32.23578        -2.28860
O         49.27546        41.74293         1.29875
H         48.66267        42.23066         1.90008
O         37.85196        35.96078        -1.48889
H         38.79325        35.95683        -1.79346
O         39.29352        44.31783         1.93285
H         38.45238        44.02695         2.40372
O         43.72270        42.19121        -1.77792
H         44.54824        42.28095        -2.30271
O         50.68422        30.29473        -2.12179
H         51.35305        29.97569        -2.75937
O         44.12317        31.38285         3.58857
H         43.31950        30.98452         3.98936
O         51.78335        34.00855         0.76634
H         51.74282        33.22170         1.35958
O         34.29369        44.62813         1.88956
H         35.02093        44.47837         2.55632
O         39.36190        29.69713        -1.92830
H         38.44405        29.56045        -2.27313
O         47.94978        44.01080         2.17676
H         48.76103        44.42050         2.54613
O         48.47481        35.04060        -2.41035
H         49.06189        34.39703        -2.87621
O         38.03002        33.63891         1.90008
H         38.16370        32.72168         2.25789
O         51.41321        39.30237        -2.77000
H         51.21413        40.20361        -3.10826
O         36.70823        29.28398        -1.86284
H         35.92562        29.80102        -2.19396
O         40.54756        35.66001        -1.37557
H         40.98160        36.47107        -1.77178
O         51.65231        38.10889         0.63958
H         51.84649        37.23584         1.03977
O         41.58453        50.24892         3.18555
H         42.48781        50.50715         3.45729
O         33.94657        33.60181         1.71932
H         33.21541        34.18349         2.02232
O         40.60055        37.58352         1.75684
H         39.77674        37.37910         2.25849
O         43.08724        41.88132         1.81873
H         43.86339        41.31321         2.06095
O         37.53773        44.73281        -1.18138
H         36.61633        45.01879        -1.39526
O         39.36932        39.59900         1.91027
H         39.05885        40.45853         2.28855
O         50.08558        42.03274        -2.27066
H         49.09323        42.06998        -2.46245
O         33.36583        36.20869        -2.11734
H         33.41132        35.33934        -2.59010
O         31.31503        39.41269         1.35399
H         30.43633        39.01852         1.54368
