         404
 CSIRO Nanostructure Databank - Neutral Graphene Oxide Data Set
C          1.53845         3.96388        -1.92612
C          0.33218         4.43947        -1.43848
C          1.29054         6.66908        -1.12112
C          0.20651         5.77695        -1.03851
C          1.14752         8.07219        -0.75148
C         -0.02267         8.61397        -0.24657
C          0.97385        10.79301         0.30146
C         -0.11788         9.94491         0.24687
C          0.94496        12.10296         0.93271
C         -0.21738        12.84118         1.10019
C          0.98985        14.92010         1.67476
C         -0.18886        14.21417         1.44552
C          1.04569        16.36071         1.77500
C         -0.14118        17.12418         1.67478
C          1.08805        19.19117         2.05778
C         -0.12084        18.49477         1.80613
C          1.07368        20.61024         2.25511
C         -0.10698        21.37424         2.23686
C          1.09134        23.52074         2.22911
C         -0.10594        22.76766         2.22351
C          1.12597        24.86298         1.78793
C         -0.06989        25.65889         1.62823
C          1.16103        27.27311         0.20154
C         -0.05485        26.85683         0.99058
C          1.17280        28.72594        -0.24522
C          0.03863        29.38935        -0.62655
C          1.19631        31.49127        -1.22466
C          0.04544        30.74384        -1.09867
C          1.22197        32.88497        -1.66166
C          0.05941        33.50092        -2.17957
C          1.28299        35.53555        -2.69182
C          0.08927        34.78334        -2.70795
C          1.34452        36.86697        -3.25646
C          3.90367         4.33170        -2.49703
C          2.66355         4.82563        -2.01550
C          3.71065         7.04105        -1.66868
C          2.54489         6.19087        -1.60852
C          3.63692         8.40008        -1.25875
C          2.29912         8.96627        -0.96466
C          3.49033        11.10131        -0.10303
C          2.20786        10.37737        -0.39259
C          3.50164        12.03669         1.06571
C          2.20186        12.68582         1.42708
C          3.53745        14.87299         1.87153
C          2.23707        14.16329         1.84057
C          3.53266        16.28980         1.99481
C          2.29065        17.03604         1.97358
C          3.57636        19.15069         2.27490
C          2.31545        18.45287         2.12206
C          3.61200        20.56329         2.42464
C          2.33353        21.29187         2.58712
C          3.65108        23.56774         2.66013
C          2.32892        22.81250         2.63328
C          3.58172        24.87544         1.90607
C          2.40148        25.51694         1.54417
C          3.61195        27.56577         0.81657
C          2.42598        26.81414         0.90513
C          3.65415        28.83952         0.21947
C          2.47739        29.37306        -0.46580
C          3.68721        31.66113        -0.79375
C          2.49266        30.83430        -0.97001
C          3.68846        33.00456        -1.19634
C          2.43963        33.62745        -1.64033
C          3.63778        35.80653        -1.97918
C          2.43905        34.96289        -2.10953
C          3.72966        37.06728        -2.74089
C          2.50658        37.58055        -3.30903
C          6.27605         4.61749        -3.03523
C          5.03846         5.14719        -2.57961
C          6.08814         7.37017        -2.20394
C          4.94767         6.52906        -2.14833
C          6.03806         8.67078        -1.66515
C          4.80311         9.18908        -1.20245
C          6.06133        11.06435        -0.00195
C          4.79202        10.54822        -0.59469
C          6.04976        12.20763         0.81577
C          4.78465        12.73117         1.39568
C          5.99162        14.83685         1.96304
C          4.75307        14.15745         1.80671
C          5.97765        16.23155         2.18587
C          4.77114        16.97777         2.13168
C          6.04542        19.11648         2.27850
C          4.80003        18.41804         2.24678
C          6.07690        20.54791         2.26935
C          4.84054        21.27731         2.37550
C          6.08348        23.35166         2.03522
C          4.87473        22.71249         2.30859
C          6.06815        24.77456         1.63128
C          4.85167        25.60462         1.85118
C          6.17185        27.64271         0.93634
C          4.87909        27.01735         1.35168
C          6.15600        28.96847         0.51569
C          4.86939        29.65275         0.33452
C          6.20157        31.70279        -0.53616
C          4.90190        31.08961        -0.19761
C          6.18005        33.01781        -1.10222
C          4.93317        33.69373        -1.27791
C          6.19908        35.76088        -1.98652
C          4.94966        35.13044        -1.56567
C          6.19235        37.08479        -2.50564
C          4.94211        37.71151        -2.86544
C          8.66489         4.89298        -3.54583
C          7.42833         5.41253        -3.14041
C          8.60590         7.66211        -2.73297
C          7.31888         6.85937        -2.84823
C          8.59380         8.96551        -1.99166
C          7.26863         9.49856        -1.51244
C          8.51171        11.00532         0.07871
C          7.28760        10.52233        -0.43881
C          8.47684        12.09027         0.99109
C          7.26583        12.77222         1.26498
C          8.46492        14.74393         2.10125
C          7.26100        14.10758         1.86165
C          8.52998        16.15762         2.50955
C          7.22357        16.94175         2.51710
C          8.52083        19.04626         2.23049
C          7.27675        18.39643         2.32511
C          8.55987        20.47824         2.10635
C          7.32475        21.22468         2.16513
C          8.55629        23.33650         1.73021
C          7.33686        22.64708         1.98641
C          8.58936        24.71594         1.41295
C          7.34261        25.49414         1.33421
C          8.67661        27.62959         1.15798
C          7.38268        26.95612         1.20423
C          8.68974        29.10937         0.87203
C          7.39879        29.77205         0.49513
C          8.66294        31.64707        -0.60125
C          7.41948        31.06589        -0.23500
C          8.65617        32.96235        -1.21582
C          7.41299        33.66840        -1.39442
C          8.61899        35.66488        -2.24033
C          7.40813        35.02703        -1.88834
C          8.64898        37.05013        -2.57419
C          7.42276        37.72887        -2.75148
C         11.11980         5.02354        -3.71729
C          9.88075         5.63313        -3.43159
C         11.09283         7.56250        -2.49294
C          9.88082         6.94728        -2.87720
C         11.05701         8.74401        -1.63341
C          9.83871         9.38170        -1.30147
C         10.99851        10.84960         0.27580
C          9.79641        10.41416        -0.32314
C         10.99310        11.75461         1.48425
C          9.70587        12.54308         1.66552
C         11.02673        14.69031         2.21349
C          9.72714        13.98223         2.13851
C         11.03176        16.14075         2.26747
C          9.79214        16.88723         2.32149
C         10.98659        19.02028         2.06814
C          9.76372        18.29883         2.23543
C         11.00174        20.39904         1.81594
C          9.79330        21.13234         1.89154
C         10.95211        23.16275         1.00862
C          9.88752        22.63905         1.94687
C         10.71367        24.34879         0.38633
C          9.72953        25.30028         0.82739
C         11.14695        27.48276         0.30301
C          9.93564        26.76083         0.83652
C         11.16056        28.86760         0.20893
C         10.02841        29.80043         0.60090
C         11.12318        31.55282        -0.78796
C          9.92130        30.99621        -0.35304
C         11.15316        32.77343        -1.67640
C          9.85758        33.54542        -1.63300
C         11.17431        35.66256        -2.22748
C          9.85128        34.88225        -2.21820
C         11.11029        37.13734        -2.29467
C          9.90138        37.75315        -2.60720
C         13.52378         4.90366        -3.82937
C         12.35341         5.68657        -3.53998
C         13.53421         7.65847        -2.45197
C         12.33481         6.99244        -2.89633
C         13.51042         8.61755        -1.39712
C         12.26177         9.20310        -1.02660
C         13.47550        10.75793         0.48249
C         12.23628        10.26812        -0.08190
C         13.45056        11.95509         1.29256
C         12.25359        12.59954         1.60744
C         13.48350        14.64287         2.44975
C         12.21530        13.95415         2.11632
C         13.52059        16.15985         2.49757
C         12.24138        16.84706         2.27892
C         13.58305        19.03720         2.17857
C         12.24612        18.30394         2.31173
C         13.56813        20.41319         1.66427
C         12.27599        21.03587         1.35096
C         13.57279        23.20646         0.82899
C         12.26692        22.46025         0.83149
C         13.64284        24.64746         0.59829
C         12.56737        25.40013         0.07997
C         13.64150        27.51050         0.41180
C         12.42790        26.79214         0.24362
C         13.64106        28.91134         0.15456
C         12.39637        29.56769        -0.05686
C         13.62354        31.61334        -0.67164
C         12.37850        30.91991        -0.48094
C         13.63025        32.98059        -1.05994
C         12.37474        33.64808        -1.40664
C         13.54110        35.83656        -1.23415
C         12.34315        34.99857        -1.62609
C         13.53113        37.25817        -1.76298
C         12.32028        37.86586        -2.12176
C         16.06459         4.85855        -3.88053
C         14.81318         5.44304        -4.02042
C         15.99328         7.57151        -2.31643
C         14.79206         7.36885        -3.01393
C         15.95287         8.41624        -1.18257
C         14.73292         9.04004        -0.79094
C         15.95376        10.69456         0.62241
C         14.70486        10.13887         0.15267
C         16.00389        11.91977         1.27308
C         14.74200        12.51405         1.73876
C         16.03161        14.68146         2.11968
C         14.77935        13.91955         2.28213
C         16.01414        16.10345         2.05576
C         14.80128        16.85836         2.19325
C         16.03667        18.95313         1.74619
C         14.81479        18.24060         1.99287
C         16.02488        20.39224         1.58176
C         14.77247        21.08448         1.42422
C         16.02146        23.21757         1.24292
C         14.76318        22.51360         1.12488
C         15.99745        24.68690         1.35928
C         14.80495        25.40420         0.91164
C         16.09151        27.53832         0.70134
C         14.84586        26.80364         0.69341
C         16.10053        28.92447         0.32344
C         14.87277        29.60726         0.04054
C         16.10654        31.65600        -0.58821
C         14.86945        30.96734        -0.39394
C         16.09871        32.98392        -1.07878
C         14.86072        33.65348        -1.24015
C         16.06418        35.88931        -1.70032
C         14.80535        35.09139        -1.60724
C         15.99672        37.36257        -1.53790
C         14.73301        37.98835        -1.71981
C         18.59402         4.96960        -3.85910
C         17.28346         5.66577        -3.69497
C         18.46498         7.15995        -1.95227
C         17.24830         6.93689        -2.80340
C         18.49873         8.34011        -1.06343
C         17.21209         8.74806        -0.48936
C         18.49700        10.63623         0.67303
C         17.21221         9.95916         0.43299
C         18.46891        11.88829         1.35396
C         17.24875        12.55067         1.63412
C         18.46823        14.69781         1.91728
C         17.24058        13.95979         1.99031
C         18.45843        16.07635         1.69841
C         17.23776        16.80899         1.79634
C         18.55584        18.95629         1.85035
C         17.24272        18.22840         1.70861
C         18.49127        20.41154         1.46099
C         17.26206        21.10131         1.45662
C         18.50927        23.27139         1.29041
C         17.24526        22.54779         1.34010
C         18.55492        24.69000         1.24336
C         17.31279        25.46265         1.37630
C         18.54689        27.55622         0.82177
C         17.30556        26.87182         0.94322
C         18.55167        28.95785         0.53686
C         17.32660        29.63097         0.24363
C         18.56169        31.69442        -0.24164
C         17.35050        31.00156        -0.21295
C         18.71778        32.99059        -1.00229
C         17.39139        33.68332        -1.35350
C         18.54361        35.98958        -1.09913
C         17.37886        35.18120        -1.53984
C         18.43355        37.40717        -1.09880
C         17.17605        38.06463        -1.34940
C         19.75100         5.44041        -3.35933
C         20.98308         7.19066        -1.90666
C         19.75728         6.47194        -2.29234
C         20.94253         8.28869        -1.11195
C         19.70154         8.85849        -0.59705
C         20.94848        10.65487         0.66168
C         19.70669        10.03253         0.26496
C         20.98205        11.78978         1.40787
C         19.74594        12.46873         1.80084
C         20.98638        14.78992         2.04642
C         19.74675        13.98984         2.09824
C         20.96735        16.07624         1.66582
C         19.70717        16.72372         1.13576
C         20.82189        18.93064         0.83516
C         19.72811        18.22627         1.25226
C         20.86419        20.34995         0.90455
C         19.71870        21.09496         1.20247
C         20.94221        23.26253         1.06137
C         19.73057        22.55066         1.17942
C         20.96938        24.64708         1.01421
C         19.77437        25.39318         1.09035
C         20.97188        27.59434         1.01014
C         19.77936        26.85272         0.99620
C         20.97187        28.97591         0.82193
C         19.78257        29.67718         0.55426
C         20.88260        31.91720         0.46337
C         19.76960        31.09735         0.25171
C         20.83528        33.31348         0.23162
C         19.76885        33.91796        -0.40698
C         20.83022        36.18018        -0.29534
C         19.72321        35.36139        -0.62490
C         20.75591        37.56948        -0.39395
C         19.56438        38.18680        -0.76073
O         10.68857        35.00261        -3.44084
O         18.91518         5.98678        -1.17259
O          4.09883        11.63492        -1.32097
O          2.75843        29.69820        -1.87865
O         17.40246         7.02243        -4.24829
O          2.19006        22.03785         3.86906
O         17.16005         8.59187         0.96779
O          4.71371        30.81661         1.24936
O         13.48741        15.35537         3.72735
O         11.57060        24.74867        -0.64183
O         15.33996        35.44396        -2.90636
O         12.96552        18.85855         3.49793
O          4.23627        11.65153         2.26549
O          9.62211        27.25477         2.19817
O          7.80912         7.68996        -3.95543
O         14.83745        12.77943         3.19083
O          9.55469        12.85477         3.08724
O          6.48990        24.91444         0.21996
O         14.81644         6.82999        -4.29756
O         19.72323        13.00145         3.16309
O          4.14615        35.91817        -0.61180
O          7.90076        10.01894        -2.73641
O         17.56203        34.28151        -2.68818
O          2.13823        13.08176         2.82404
O         16.57085        25.19808         2.61484
O          1.99263        10.13197        -1.81040
O          7.94916        29.86465         1.88659
O          7.84008        16.47071         3.76934
O          4.92180        26.72248         2.79762
O         12.19934        21.34404        -0.11811
O         13.55441        35.93611         0.22296
H         12.78159        36.47075         0.50098
O         19.67360        16.44232        -0.30876
H         19.76882        15.47405        -0.42818
O         11.29406        32.28763        -3.05544
H         11.24407        33.08851        -3.63175
O         11.05432        10.82341         2.60909
H         10.78111        11.33405         3.40643
O          3.88452        23.96534         4.04481
H          3.44775        23.28231         4.60681
O         10.32244        22.95873         3.31504
H          9.64134        22.62257         3.93542
O         19.31075        32.54372        -2.26696
H         19.01823        33.19685        -2.94864
O         18.80660        18.96066         3.31615
H         18.06563        19.44602         3.73906
O          1.10235        26.50739        -1.05758
H          1.08180        25.55628        -0.81882
O         10.46920        30.36509         1.86820
H          9.65430        30.55279         2.39101
H          1.63894         2.91609        -2.24275
H         -0.53593         3.76980        -1.36629
H         -0.76609         6.12431        -0.66568
H         -0.91522         7.98194        -0.14207
H         -1.06936        10.25728         0.69988
H         -1.18436        12.40201         0.81709
H         -1.14830        14.74762         1.41663
H         -1.10358        16.62806         1.49792
H         -1.06752        19.04310         1.72530
H         -1.07852        20.87349         2.13273
H         -1.06459        23.28334         2.07358
H         -1.00099        25.30987         2.09882
H         -0.97429        27.45771         0.93831
H         -0.94016        28.89581        -0.54088
H         -0.93083        31.19642        -1.32131
H         -0.88555        32.94195        -2.20672
H         -0.82141        35.22144        -3.14050
H          0.42422        37.28412        -3.69063
H          3.97320         3.27862        -2.80755
H          2.52939        38.56767        -3.79370
H          6.33108         3.55130        -3.30116
H          4.98366        38.68633        -3.37486
H          8.72370         3.83922        -3.85723
H          7.42873        38.77811        -3.08059
H         11.12314         3.99915        -4.11839
H          9.87842        38.84480        -2.74045
H         13.38995         3.81345        -3.90054
H         12.31637        38.94131        -2.35786
H         16.14479         3.78284        -3.66858
H         14.70083        39.07845        -1.87123
H         18.60881         4.11181        -4.54918
H         17.14820        39.16296        -1.29054
H         20.70625         4.95780        -3.61630
H         21.94411         6.84102        -2.31248
H         21.89320         8.77756        -0.86026
H         21.90022        10.17759         0.39477
H         21.94093        12.20055         1.75211
H         21.91294        14.32620         2.41472
H         21.89606        16.66547         1.67777
H         21.69511        18.40259         0.42520
H         21.80140        20.85027         0.62964
H         21.89508        22.72056         1.00333
H         21.93694        25.15489         0.90879
H         21.93407        27.09060         1.17328
H         21.93249        29.50839         0.83966
H         21.79810        31.49929         0.90383
H         21.68786        33.91033         0.58442
H         21.77367        35.72774         0.03577
H         21.63608        38.17877        -0.14601
H         19.48817        39.28297        -0.78086
