         234
 CSIRO Nanostructure Databank - Neutral Graphene Oxide Data Set
C          1.52614         1.40381         0.18693
C          1.56380         2.52576        -0.66207
C          2.63844         1.09658         0.94423
C          2.66745         3.37446        -0.63820
C          1.42220         6.35248        -1.46753
C          1.33836         7.75818        -1.27214
C          2.52866         5.65085        -1.07376
C          2.38763         8.48304        -0.74757
C          1.31722        10.58839        -1.47902
C          1.42488        11.87587        -1.97537
C          2.44119         9.93722        -0.92810
C          2.65390        12.53583        -1.88233
C          1.48794        15.66209        -1.94618
C          1.33278        16.83390        -1.28231
C          2.66345        14.84568        -1.75763
C          2.34399        17.28632        -0.32024
C          2.43562        18.73667        -0.05499
C          3.79907         1.92459         0.91039
C          3.78404         3.18071         0.20960
C          5.00723         1.42440         1.43951
C          4.92900         4.08384         0.30463
C          3.57905         6.22338        -0.22187
C          3.50427         7.75807        -0.10811
C          4.88076         5.52044         0.04346
C          4.76734         8.51923         0.17562
C          3.63172        10.68055        -0.70269
C          3.73746        12.02063        -1.14828
C          4.79913        10.01218        -0.07010
C          5.06180        12.78172        -1.14421
C          3.70247        15.15253        -0.91969
C          3.61115        16.43056        -0.15846
C          4.98121        14.35180        -0.91663
C          4.85682        17.16571         0.14478
C          3.59472        19.31563         0.32425
C          4.84747        18.57719         0.38336
C          6.19823         2.13150         1.21800
C          6.12712         3.48130         0.74683
C          7.46209         1.52506         1.47607
C          7.38997         4.22902         0.81505
C          6.02512         6.33820         0.21312
C          6.03977         7.76504         0.18461
C          7.32833         5.69698         0.55130
C          7.26219         8.51943         0.38847
C          6.10787        10.71650        -0.06559
C          6.14390        12.09897        -0.29295
C          7.25908         9.98833         0.38254
C          7.32845        12.82701         0.07282
C          6.15266        15.03337        -0.27188
C          6.08154        16.47621         0.12562
C          7.30236        14.22901         0.18181
C          7.27606        17.19078         0.29867
C          6.04420        19.28468         0.52129
C          7.30580        18.62480         0.42137
C          8.69166         2.10045         1.09989
C          8.67470         3.49573         0.69576
C          9.86828         1.29649         1.33819
C          9.82764         4.29030         0.51864
C          8.56648         6.41643         0.06914
C          8.49187         7.86107         0.47311
C          9.82731         5.70961         0.48839
C          9.67249         8.45991         1.18025
C          8.46454        10.69510         0.63508
C          8.51138        12.10421         0.49336
C          9.66848         9.98578         1.13068
C          9.75849        12.81668         0.60664
C          8.47528        14.93467         0.69432
C          8.50865        16.47056         0.61558
C          9.76919        14.25516         0.60674
C          9.79212        17.14290         0.47146
C          8.53755        19.29634         0.41886
C          9.76304        18.56450        -0.05657
C         11.12001         1.55262         0.76576
C         11.11830         3.66913         0.33267
C         12.42034         1.17340         1.13082
C         12.31257         4.20200         0.70772
C         11.04473         6.41036         0.73133
C         11.01919         7.79606         0.87418
C         12.25931         5.61421         1.25921
C         12.28214         8.51191         1.30828
C         11.00935        10.71949         1.08795
C         10.98929        12.13635         0.71476
C         12.26345         9.97592         0.94114
C         12.22328        12.81176         0.53454
C         10.94777        14.99423         0.60629
C         10.96559        16.43960         0.59460
C         12.19195        14.26499         0.31271
C         12.24184        17.20152         0.87388
C         11.08234        19.27876         0.08607
C         12.26521        18.62742         0.34292
C         13.56785         1.95107         0.72728
C         13.53937         3.41237         0.57106
C         14.80950         1.30610         0.66386
C         14.73792         4.09306         0.39346
C         13.57639         6.34438         1.01844
C         13.52002         7.80944         0.79624
C         14.77102         5.56899         0.55815
C         14.64214         8.50257         0.38966
C         13.43052        10.65554         0.56762
C         13.43642        12.10598         0.46435
C         14.64696         9.93412         0.32518
C         14.69273        12.81946         0.38263
C         13.52026        15.02448         0.33716
C         13.50772        16.45519         0.58999
C         14.72825        14.22118         0.52109
C         14.74832        17.19680         0.76919
C         13.53772        19.29506         0.25101
C         14.76971        18.64351         0.42692
C         16.00158         1.96178         0.22928
C         15.97227         3.41080         0.08794
C         17.18873         1.25845         0.02181
C         17.13268         4.11152        -0.23787
C         15.89155         6.32216        -0.07569
C         15.98345         7.79685         0.26325
C         17.15764         5.58514        -0.35283
C         16.94738         8.47313        -0.71718
C         15.85882        10.63741        -0.00363
C         15.90152        12.08464         0.10751
C         17.00256         9.95570        -0.41049
C         17.09272        12.77751        -0.18012
C         15.99272        14.92551         0.70614
C         16.04291        16.42671         0.75067
C         17.22361        14.18141         0.21007
C         17.21916        17.11551         0.18465
C         16.02827        19.28259         0.33646
C         17.27427        18.57476         0.28474
C         18.30424         1.87226        -0.68208
C         18.28476         3.43596        -0.81727
C         19.62354         1.23716        -0.78951
C         19.55426         4.16279        -1.06049
C         18.49355         6.30829        -0.20629
C         18.31505         7.79283        -0.55210
C         19.66533         5.57319        -0.92641
C         19.39861         8.59127        -0.43980
C         18.17876        10.69494        -0.87049
C         18.25588        12.13741        -0.68388
C         19.48913         9.95942        -0.96986
C         19.47229        12.82455        -0.89205
C         18.29615        14.95141        -0.42690
C         18.18490        16.38199        -0.47292
C         19.37034        14.25299        -0.96581
C         20.10876        17.42300        -0.24596
C         18.50588        19.23719         0.41911
C         19.80867        18.59757         0.48858
C         20.67897         1.93380        -1.27871
C         20.66497         3.37391        -1.47112
C         21.83483         4.01436        -1.92538
C         20.90359         6.17973        -1.30706
C         21.21105         7.59690        -1.05651
C         21.92996         5.39480        -1.87796
C         21.92149         8.52569        -1.76428
C         20.79597        10.67731        -1.06212
C         20.77084        12.14960        -0.92711
C         21.89769         9.95692        -1.46788
C         21.93621        12.82767        -0.56824
C         21.32722        15.26135        -0.58781
C         21.25262        16.61426        -0.02245
C         22.11059        14.20454        -0.18096
C         22.21309        17.12576         0.87842
C         20.83679        19.09240         1.32729
C         22.01654        18.36576         1.49757
O         19.16551        17.06062        -1.22439
O         16.96197        14.36558         1.64788
O         20.58087         8.07315         0.12009
O         11.08990         2.44182        -0.33402
O          3.06873         6.88710         0.98628
O         18.67162        10.16179        -2.17816
O          5.99791        14.98194        -1.78129
O         12.80350        14.68079        -0.95455
O         16.24804         5.98499        -1.44163
O         10.24586        10.52244         2.35496
O          2.68991         4.38022        -1.61602
O          8.31860        15.74793         1.89676
O         15.53158        16.92778         2.02683
O         20.39249        14.96754        -1.60848
O          7.39801         5.24088         1.92712
O          2.56579        16.44941         0.86669
O         17.91487         2.55155        -1.91974
O          4.56670         9.46761         1.28342
O          2.75204        13.73672        -2.60015
O         14.63725         5.96587         1.98783
O         12.32506         8.41171         2.79500
H         13.13779         8.87134         3.09833
O          8.51200         6.36056        -1.39962
H          9.32107         6.78746        -1.75183
O         16.58806         7.91113         1.57576
H         16.08172         7.30629         2.17122
O          9.57163        18.38971        -1.51901
H         10.36544        17.92916        -1.86681
O          9.47339         8.09718         2.58070
H         10.09230         8.66597         3.09919
O         12.24128        17.33334         2.34694
H         13.11816        17.68502         2.61623
O          5.55868        12.60227        -2.49707
H          6.08942        13.40777        -2.71263
O         18.81798         6.19492         1.20358
H         19.59273         6.77969         1.36665
O         16.44198         8.39049        -2.06255
H         17.07712         8.87884        -2.63427
O         12.03386         5.52997         2.68351
H         12.05193         6.45359         3.03354
H          0.64393         0.74977         0.19609
H          0.73865         2.73360        -1.35496
H          2.67017         0.17329         1.53943
H          0.65732         5.85062        -2.07354
H          0.46325         8.25920        -1.70257
H          0.35616        10.07000        -1.57524
H          0.58291        12.35789        -2.48803
H          0.75403        15.33655        -2.69582
H          0.49843        17.50946        -1.52406
H          1.52962        19.34452        -0.19960
H          5.03015         0.42977         1.90754
H          3.63437        20.39919         0.51046
H          7.46363         0.50327         1.88521
H          6.01474        20.37851         0.63383
H          9.76242         0.45843         2.04382
H          8.57791        20.38086         0.59608
H         12.58702         0.28052         1.75269
H         11.11323        20.33374        -0.23158
H         14.84850         0.21872         0.83070
H         13.53827        20.35863        -0.03524
H         17.26892         0.20768         0.33850
H         16.05269        20.38027         0.25337
H         19.72771         0.17672        -0.51634
H         18.47024        20.30553         0.68898
H         21.64150         1.42353        -1.43492
H         22.68112         3.41238        -2.28500
H         22.85621         5.89148        -2.20069
H         22.53058         8.20701        -2.62409
H         22.80952        10.51635        -1.73636
H         22.82203        12.19511        -0.39260
H         22.95069        14.40706         0.50125
H         23.13051        16.55578         1.08212
H         20.68325        20.02730         1.88447
H         22.79395        18.75475         2.16950
