         324
 CSIRO Nanostructure Databank - Neutral Graphene Oxide Data Set
C          1.31076         2.36037        -1.88158
C          1.20292         3.51731        -1.14711
C          2.55379         1.71217        -2.03487
C          2.38765         4.11094        -0.51622
C          1.07673         6.30357         0.02281
C          1.08051         7.63820        -0.13245
C          2.31665         5.50023         0.09394
C          2.33116         8.41538        -0.32638
C          1.02912        10.62050        -0.12185
C          1.00507        11.75769         0.60635
C          2.30850         9.93113        -0.38522
C          2.24429        12.40435         0.98875
C          1.17720        15.54334         0.84015
C          1.24110        16.76852         0.12065
C          2.27247        14.70276         0.90668
C          2.39765        17.13544        -0.52231
C          2.50952        18.41995        -1.17352
C          3.74712         2.28965        -1.54282
C          3.71920         3.56977        -0.88132
C          4.97760         1.60309        -1.62138
C          4.91218         4.22088        -0.57208
C          3.60375         6.25974         0.29035
C          3.60333         7.74778         0.10971
C          4.91255         5.46900         0.30984
C          4.88849         8.48488         0.04928
C          3.58995        10.70507        -0.12448
C          3.47882        12.00854         0.57770
C          4.88904         9.95645         0.04766
C          4.70873        12.80548         1.00781
C          3.54000        14.98325         0.29062
C          3.56574        16.18159        -0.64078
C          4.71576        14.23188         0.44456
C          4.88237        16.90832        -0.62812
C          3.72598        18.92687        -1.50575
C          4.94425        18.22482        -1.12581
C          6.19399         2.21380        -1.28180
C          6.17438         3.61617        -0.89965
C          7.35017         1.35212        -1.12883
C          7.37030         4.37782        -0.66292
C          6.12541         6.35854         0.09965
C          6.08716         7.79385         0.22137
C          7.34238         5.72705        -0.13336
C          7.33026         8.52109         0.41278
C          6.06963        10.67628         0.58101
C          6.01543        12.06783         0.75040
C          7.31760         9.95531         0.64723
C          7.21029        12.81657         0.89287
C          5.99833        14.86790         0.24750
C          6.05945        16.23090        -0.20895
C          7.21472        14.21981         0.63773
C          7.30121        16.92499        -0.22164
C          6.18301        18.88357        -1.19830
C          7.35032        18.26218        -0.73647
C          8.64453         1.81380        -1.31713
C          8.63087         3.93586        -1.08913
C          9.90492         1.36918        -0.85859
C          9.86294         4.44070        -0.58567
C          8.58295         6.44822         0.01693
C          8.53864         7.82226         0.40512
C          9.82454         5.78145        -0.09225
C          9.80074         8.47971         0.78993
C          8.49686        10.64813         0.93643
C          8.45268        12.08782         1.20042
C          9.78841         9.96939         1.10984
C          9.75971        12.83834         1.42651
C          8.45711        14.95950         0.67404
C          8.49195        16.28856         0.26278
C          9.69834        14.33398         1.24254
C          9.72391        17.15019         0.48667
C          8.60693        18.93624        -0.86238
C          9.77465        18.37191        -0.39850
C         11.05045         2.19917        -0.70817
C         11.05287         3.65951        -0.55148
C         12.28021         1.50193        -0.57051
C         12.25163         4.33087        -0.12565
C         11.06974         6.47633         0.11574
C         11.06388         7.82672         0.43390
C         12.30354         5.71983         0.08386
C         12.30646         8.63688         0.22624
C         11.07176        10.73695         1.04337
C         11.05977        12.14176         1.23794
C         12.27538        10.02727         0.81901
C         12.30108        12.88547         1.35726
C         11.01383        15.05406         1.15645
C         11.02492        16.38265         0.47265
C         12.29405        14.29744         1.33460
C         12.19781        16.95436         0.03554
C         11.02217        18.98929        -0.67128
C         12.24065        18.33101        -0.51177
C         13.48980         2.11475        -0.21835
C         13.43753         3.52548         0.23279
C         14.70302         1.42196        -0.27885
C         14.70800         4.21701         0.64212
C         13.54680         6.42418         0.38616
C         13.56181         7.83582         0.49840
C         14.77041         5.70291         0.56377
C         14.77631         8.52973         0.71322
C         13.52011        10.68432         1.01656
C         13.50852        12.05117         1.43090
C         14.76751         9.95860         0.94492
C         14.74622        12.54160         1.88885
C         13.41216        15.33669         1.59581
C         13.43650        16.27675         0.40834
C         14.77759        14.73826         1.82149
C         14.61423        16.56090        -0.19284
C         13.42782        19.10686        -0.77315
C         14.68072        18.56979        -1.06153
C         15.95934         2.05017        -0.04962
C         15.98071         3.42594         0.53997
C         17.14739         1.36855        -0.22670
C         17.26611         4.17405         0.65355
C         15.98744         6.38918         0.69377
C         16.00917         7.80949         0.74613
C         17.27611         5.66022         1.05869
C         17.26974         8.51495         0.85821
C         16.00406        10.62189         1.15781
C         15.98059        11.98237         1.55822
C         17.27151         9.92016         1.07184
C         17.22512        12.79673         1.71644
C         15.93604        15.03005         1.18107
C         15.92404        16.31311         0.43013
C         17.17772        14.21231         1.13973
C         17.14778        17.08894         0.06130
C         15.97798        19.13084        -0.99880
C         17.15347        18.37291        -0.73535
C         18.42917         2.08618        -0.34235
C         18.45647         3.58709        -0.04057
C         19.70895         1.40178        -0.28850
C         19.74303         4.27489         0.09298
C         18.52105         6.38523         0.59669
C         18.51185         7.82299         0.71217
C         19.69225         5.69630         0.29682
C         19.73390         8.55527         0.70428
C         18.50264        10.61371         1.23912
C         18.52350        12.05302         1.61307
C         19.73031         9.95204         0.99845
C         19.79746        12.82875         1.37512
C         18.41830        14.91564         0.63150
C         18.44013        16.37685         0.26013
C         19.73905        14.26288         0.93753
C         19.61039        17.02064        -0.04093
C         18.39906        18.99520        -0.90687
C         19.63412        18.38330        -0.56936
C         20.91551         2.10162        -0.23088
C         20.93541         3.55678        -0.13079
C         22.15930         1.40615        -0.22581
C         22.19733         4.22501        -0.11949
C         20.90804         6.46447        -0.04489
C         20.97660         7.88190         0.37846
C         22.19364         5.68972        -0.27714
C         22.19276         8.52218         0.49729
C         20.99144        10.67932         1.05048
C         21.04885        12.06415         1.14126
C         22.23977         9.89920         1.01580
C         22.28745        12.78627         0.92728
C         20.96889        14.86937         0.34903
C         20.91075        16.30471        -0.03250
C         22.27256        14.23321         0.66968
C         22.14856        17.13238         0.09048
C         20.85438        19.04063        -0.82077
C         22.12661        18.47881        -0.52597
C         23.38604         2.07608        -0.12826
C         23.41050         3.52154        -0.07153
C         24.62221         1.37291        -0.16852
C         24.67976         4.20430         0.04156
C         23.50242         6.40853        -0.19980
C         23.47250         7.88083         0.14459
C         24.73394         5.62926         0.06758
C         24.75099         8.53798         0.44380
C         23.58063        10.65669         0.95013
C         23.48337        12.09939         0.77660
C         24.81258         9.94858         0.50238
C         24.68479        12.81617         0.30331
C         23.42500        14.95646         0.51864
C         23.45110        16.43071         0.34315
C         24.72824        14.27274         0.60155
C         24.70563        17.09975        -0.08824
C         23.34098        19.12173        -0.73637
C         24.61534        18.48482        -0.53202
C         25.85181         2.03089        -0.05724
C         25.88953         3.46893         0.14264
C         27.07192         1.31010        -0.23146
C         27.13915         4.13070         0.36195
C         25.95342         6.29108         0.22915
C         25.98973         7.76899         0.34810
C         27.18412         5.57393         0.34954
C         27.24687         8.50175        -0.06379
C         25.97685        10.63516         0.14417
C         25.95714        12.09779         0.01280
C         27.12233         9.93764        -0.54646
C         27.24191        12.84634        -0.01532
C         25.99492        15.00383         0.30402
C         25.91962        16.43309        -0.09238
C         27.21678        14.21619        -0.01863
C         27.13956        17.08630        -0.52432
C         25.79208        19.16661        -0.82380
C         27.07371        18.51835        -0.82502
C         28.30121         1.94246        -0.08321
C         28.32626         3.31463         0.36531
C         29.56115         1.27001        -0.29930
C         29.57931         3.80809         0.75411
C         28.39607         6.34528         0.19926
C         28.35592         7.61823        -0.62245
C         29.62904         5.89848         0.63805
C         29.69707         8.39183        -0.65998
C         28.43422        10.69576        -0.39735
C         28.48189        12.07548        -0.15926
C         29.68822         9.95233        -0.63415
C         29.73686        12.77858        -0.17918
C         28.45777        15.01570        -0.08187
C         28.34721        16.40700        -0.58806
C         29.76775        14.25393        -0.10603
C         29.57065        17.06704        -1.10155
C         28.22362        19.23054        -1.07268
C         29.55319        18.58952        -1.34992
C         30.76542         1.91113        -0.15709
C         30.81948         3.26566         0.32996
C         31.98260         4.07682         0.29102
C         30.91406         6.35912         0.20781
C         30.96240         7.72911        -0.28083
C         32.02253         5.48263         0.24693
C         32.13523         8.47260        -0.28965
C         30.97369        10.63708        -0.40783
C         30.96916        12.09023        -0.33517
C         32.13893         9.88451        -0.38074
C         32.16681        12.82870        -0.47566
C         30.99455        14.95885        -0.50453
C         30.91357        16.39412        -0.88494
C         32.16304        14.22930        -0.62399
C         32.06925        17.26013        -0.65016
C         30.70711        19.29004        -0.67827
C         31.90928        18.63857        -0.46704
O         10.20251        15.06956         2.41733
O         30.22459        16.40289        -2.24668
O         27.01374         8.28158         1.33185
O          4.50405        10.63101        -1.25050
O         20.91825        15.25043        -1.07150
O         29.74541         9.16309        -1.88937
O         19.95739        13.93120         2.33601
O         25.04024        12.52881        -1.10799
O         16.78559         3.37241         1.78254
O          2.11168        13.58513         1.74856
O         14.65111        17.20430        -1.42861
O         29.62451         4.90145         1.63058
O          2.37259         9.12388        -1.60054
O         13.79671         3.70138         1.66161
O          9.79243         8.97363         2.19013
O         16.41256        17.38713         1.33239
O         23.07109        10.11087         2.20753
O         23.60472         7.38971        -1.27070
O          8.71164         2.99637        -2.10219
O         17.60100        14.11911        -0.29114
O          2.21814         4.33702         0.95286
O         14.74973        13.66832         2.71847
O          8.98663        12.38581         2.57325
O          3.46383         7.13042         1.46624
O         18.26257         3.13126        -1.41071
O         29.23487        14.86528         1.16384
O         17.95247        12.44511         2.92064
O         25.57622        14.71601         1.70424
O         21.37960         6.15880        -1.39917
O         22.72978        17.12742         1.43330
O          9.58045        17.66997         1.84964
H          9.72443        16.89877         2.45374
O         28.02455         7.24966        -1.97140
H         28.13174         8.05957        -2.52302
O          4.66555        12.91463         2.45874
H          3.81101        13.34577         2.69283
O          3.44532        15.58128        -1.99320
H          3.45693        16.32438        -2.63430
O         17.34696         5.71424         2.50840
H         16.88490         4.90820         2.84427
O         29.77540        18.82726        -2.77991
H         30.20287        18.00396        -3.12448
O          5.05288         4.95375         1.66559
H          4.66244         5.62590         2.26826
O         13.01583        16.07669         2.76997
H         12.92085        15.44032         3.50946
O         26.80507         9.85797        -1.97133
H         26.46900        10.73502        -2.25708
O         12.32209         8.88864        -1.24504
H         12.49197         8.02927        -1.68792
H          0.41008         1.90635        -2.31809
H          0.21878         3.96692        -0.96074
H          2.60344         0.74456        -2.55320
H          0.12324         5.77321         0.15629
H          0.12308         8.17523        -0.18023
H          0.09882        10.17489        -0.49835
H          0.05931        12.25752         0.85369
H          0.26862        15.27998         1.39611
H          0.37502        17.44596         0.12984
H          1.59297        19.00600        -1.33892
H          4.98047         0.55966        -1.96779
H          3.81720        19.92017        -1.96739
H          7.17228         0.32178        -0.78800
H          6.23322        19.90854        -1.59338
H         10.02080         0.30813        -0.58991
H          8.63983        19.88946        -1.41188
H         12.28917         0.42313        -0.78798
H         11.01360        19.98967        -1.13180
H         14.69742         0.37595        -0.62005
H         13.32498        20.20123        -0.70507
H         17.12436         0.30258        -0.49994
H         16.09013        20.22251        -1.09436
H         19.71537         0.30510        -0.20111
H         18.42639        19.99463        -1.36769
H         22.15181         0.30973        -0.31521
H         20.81920        20.04930        -1.26030
H         24.60779         0.28236        -0.31342
H         23.34289        20.14570        -1.14019
H         27.02777         0.24373        -0.49776
H         25.74501        20.22479        -1.12132
H         29.53586         0.22638        -0.64506
H         28.15594        20.31437        -1.25299
H         31.70240         1.39623        -0.41467
H         32.93440         3.56290         0.08102
H         33.00820         5.91692         0.01743
H         33.09053         7.97220        -0.07729
H         33.11103        10.38773        -0.28848
H         33.12289        12.30162        -0.58718
H         33.10617        14.73391        -0.87712
H         33.03178        16.79598        -0.39413
H         30.64242        20.37806        -0.53481
H         32.77683        19.22031        -0.12060
