         276
 CSIRO Nanostructure Databank - Neutral Graphene Oxide Data Set
C        -11.22326         0.60477        -0.55005
C        -10.08192         1.34358         0.11784
C         -8.76400         0.65379        -0.12235
C         -7.61027         1.35833        -0.05892
C         -6.28860         0.63000         0.00169
C         -5.12950         1.37893         0.69251
C         -3.84051         0.68588         0.27239
C         -2.67983         1.49658        -0.23598
C         -1.33135         0.75094        -0.39514
C         -0.00163         1.47954        -0.34410
C          1.37709         0.76413        -0.43993
C          2.58376         1.51998         0.24386
C          3.83043         0.78205         0.47773
C          5.09920         1.45199         0.91517
C          6.37680         0.80583         0.40503
C          7.68893         1.50594         0.60857
C          8.99436         0.73847         0.33996
C          9.97185         1.58818        -0.52422
C         11.24388         0.76412        -0.69807
C        -10.04442         2.84114        -0.10286
C         -8.87122         3.56723        -0.29749
C         -7.59280         2.78498        -0.57151
C         -6.38683         3.56892        -0.08110
C         -5.16496         2.88475         0.43012
C         -3.85271         3.60842         0.56548
C         -2.56479         2.84459         0.45982
C         -1.25682         3.60157         0.44236
C          0.01402         2.95452        -0.04061
C          1.30221         3.66867         0.28676
C          2.55055         2.87886         0.50380
C          3.76894         3.64065         0.96638
C          5.10381         2.93867         0.99414
C          6.30862         3.66861         0.44706
C          7.65546         3.00006         0.54364
C          8.87492         3.76844         0.18025
C         10.19147         2.97879         0.13360
C         -8.82455         4.98345        -0.33467
C         -7.60385         5.74159        -0.66828
C         -6.29102         4.97262        -0.58498
C         -4.99693         5.71570        -0.40937
C         -3.86081         5.10447         0.38881
C         -2.56472         5.86269         0.41533
C         -1.26889         5.11200         0.51256
C         -0.01352         5.81242         0.21167
C          1.18019         5.12201         0.68312
C          2.52146         5.94277         0.83912
C          3.79635         5.15113         1.00824
C          5.13565         5.92090         0.94900
C          6.25875         5.14221         0.23260
C          7.52989         5.91344        -0.17895
C          8.80841         5.09948        -0.03543
C         -7.50695         7.22357        -0.63933
C         -6.31485         7.90128        -0.69818
C         -5.00309         7.20000        -0.63431
C         -3.81617         7.99523        -0.09689
C         -2.49467         7.20092        -0.32411
C         -1.27406         8.05352         0.10585
C          0.01115         7.24736        -0.02812
C          1.30061         8.00572         0.07648
C          2.54184         7.31506         0.43044
C          3.78346         7.90742        -0.16324
C          5.07107         7.32388         0.37411
C          6.23934         8.00792         0.21276
C          7.58194         7.32836         0.46446
C         -6.22632         9.35409        -0.77912
C         -5.04841        10.04432        -0.79641
C         -3.74292         9.41454        -0.62758
C         -2.56155        10.09228        -0.67886
C         -1.21344         9.37605        -0.70857
C          0.03200        10.15917        -0.35613
C          1.24656         9.52016         0.27699
C          2.58005        10.13178        -0.12159
C          3.74473         9.42583        -0.18673
C          5.03184        10.07357        -0.38981
C          6.19991         9.39165        -0.23979
C        -11.21241        -0.74626        -0.65656
C        -10.04188        -1.55329        -0.34254
C         -8.70392        -0.85152        -0.35827
C         -7.75461        -1.47991         0.65533
C         -6.38983        -0.77563         0.61136
C         -5.08725        -1.49138         0.49888
C         -3.81537        -0.71927         0.25963
C         -2.60739        -1.42170         0.18190
C         -1.34972        -0.79118        -0.38152
C         -0.11234        -1.36786         0.37658
C          1.20070        -0.70871        -0.03695
C          2.22908        -1.56314        -0.24794
C          4.05161        -0.50994         0.07086
C          5.15534        -1.38601         0.60342
C          6.39209        -0.64591         0.11592
C          7.63195        -1.48603         0.19454
C          8.78544        -0.63584        -0.30532
C          9.97638        -1.36492        -0.84208
C         11.24160        -0.57939        -0.82722
C        -10.07707        -2.91545        -0.18142
C         -8.89744        -3.72423         0.06849
C         -7.62171        -3.06352         0.62064
C         -6.44630        -3.59757        -0.23387
C         -5.09683        -2.91743         0.05719
C         -3.80968        -3.63443         0.24811
C         -2.55377        -2.86541         0.66167
C         -1.33861        -3.62530         0.12176
C         -0.01330        -2.88280        -0.01996
C          1.14310        -3.62649         0.63250
C          2.42703        -2.86945         0.43441
C          3.78353        -3.51486         0.60409
C          5.06664        -2.85513         0.17829
C          6.19167        -3.53686        -0.18499
C          7.41151        -2.74939        -0.67410
C          8.70465        -3.53254        -0.78407
C          9.89252        -2.85206        -0.87990
C         -8.87952        -5.08598        -0.12286
C         -7.66265        -5.88365        -0.00512
C         -6.37703        -5.12899        -0.13318
C         -5.09969        -5.84176         0.16645
C         -3.85127        -5.09861         0.52417
C         -2.57134        -5.85172         0.58520
C         -1.31581        -5.11091         0.26561
C         -0.05957        -5.89317         0.38709
C          1.17696        -5.11109         0.66629
C          2.49106        -5.74313         0.25639
C          3.78016        -5.03009         0.84224
C          4.96350        -5.72986         0.18131
C          6.17120        -5.01780        -0.38199
C          7.44497        -5.70033        -0.80974
C          8.59799        -4.97105        -0.96635
C         -7.64418        -7.25114         0.09608
C         -6.40889        -8.02793         0.42816
C         -5.11958        -7.27870         0.60020
C         -3.80488        -8.01848         0.53091
C         -2.57632        -7.26501         0.05505
C         -1.33219        -8.07823         0.54195
C         -0.05546        -7.25481         0.39007
C          1.22457        -8.01105         0.49220
C          2.51217        -7.24319         0.53953
C          3.80722        -7.93607         0.30403
C          4.93618        -7.19881         0.42735
C          6.59278        -8.05130        -0.76281
C          7.35124        -7.07749        -1.34529
C         -6.26576        -9.47982         0.14435
C         -5.08423       -10.14376         0.11349
C         -3.75970        -9.50192         0.31590
C         -2.49180       -10.09817        -0.21369
C         -1.30708        -9.44137        -0.13223
C          0.01159       -10.03506        -0.60863
C          1.28493        -9.39873        -0.04585
C          2.48004       -10.00871        -0.22530
C          3.85742        -9.45341         0.15957
C          4.88135        -9.87694        -0.90404
C          6.02877        -9.28098        -1.31831
O          5.03917        -5.43667        -1.26548
O         -1.55830        -4.45417        -1.06312
O         -5.89716        -7.61322         1.76552
O          5.23796         2.12116         2.19230
O         -6.15086         3.50564         1.34746
O          5.27724        -1.36002         1.99279
O         -7.45737        -3.49185         1.93031
O          0.82592         7.57779        -1.27383
O          0.76204         3.62802        -1.10243
O          3.33782        -1.09934        -0.95562
O         -4.20542        -3.19304        -1.08116
O         -3.55595        -8.86816         1.66117
O         -1.51795        -8.29566         1.91250
O          1.90607        -7.73621         1.77550
O         -3.42158         5.82451         1.57870
O          3.65533         4.37013         2.23839
O         -1.08385         4.28492         1.71798
O         -3.20199         3.02651         1.75032
O         -5.52833        -5.67437        -1.22008
O         -5.64346        -1.16217         1.80385
O          1.61656         5.64184         1.95062
O          6.18393        -7.80691         0.56192
O          5.88589         4.23028        -0.84970
O         -0.70662         1.24852        -1.61002
O          3.16053        -2.76861         1.69818
O         -4.64548         6.29627        -1.70671
O          7.77416         2.28320         1.83318
O         -3.27714        -5.52525         1.80032
O          8.96692        -0.70545        -1.73148
O         -6.90016         5.17294        -1.87640
O          6.23452         0.28373        -0.97047
O          1.05749        -4.32439         1.90175
O         -7.48816         2.61200        -2.00800
H         -7.33632         3.50760        -2.40250
O          7.04081        -2.30719        -1.99926
H          6.99351        -3.09150        -2.58365
O          9.39404         1.88308        -1.80808
H          9.19400         1.01671        -2.24519
O         -2.28432         6.85238        -1.69560
H         -2.10422         7.67802        -2.21194
O          4.24278       -10.05223         1.41634
H          3.67543        -9.65979         2.11396
O         -3.12253         1.86278        -1.57814
H         -3.19351         1.04605        -2.11855
O         -8.34710        -1.17014         1.92451
H         -8.05433        -1.92798         2.51008
O         -6.75735        -3.28897        -1.60104
H         -6.02981        -3.66722        -2.14511
O          1.12504         9.68229         1.73266
H          0.99486        10.63527         1.92126
O         -1.04445         9.11724        -2.14360
H         -0.18479         8.63002        -2.24499
O         11.17001         3.69320        -0.61057
H         10.90152         3.64173        -1.55284
O          9.63667         0.49937         1.60490
H          9.19367         1.05879         2.28377
O          7.92753         7.28652         1.84288
H          7.17363         6.88844         2.34177
O          7.41056         6.18872        -1.59520
H          7.04747         5.37739        -2.01768
O         -2.42328        -2.85525         2.09441
H         -3.19089        -2.39057         2.49052
O          5.57106         6.05038         2.32953
H          5.11500         5.34069         2.84850
O         -0.37286        -1.18375         1.76968
H          0.26454        -1.70998         2.29822
O         -5.24376         1.22689         2.11582
H         -4.63766         1.87988         2.53495
O         -1.40275         8.43724         1.49233
H         -1.15461         7.68009         2.06516
O         -5.83859         0.44077        -1.36478
H         -6.57467        -0.01871        -1.84593
O          7.82841        -1.84696         1.55934
H          6.94197        -1.77244         2.03124
O          3.84794        -5.28838         2.23984
H          3.28737        -4.61719         2.69390
O          0.39787        -2.90665        -1.40523
H         -0.23122        -3.48786        -1.89623
O          3.72935         7.46424        -1.56854
H          2.82070         7.63988        -1.90459
O         -1.34985        -1.19828        -1.75959
H         -0.73148        -0.59677        -2.23941
O        -10.30024         1.18562         1.56751
H         -9.74268         0.42874         1.87547
O          1.73328         0.79206        -1.83484
H          1.61215         1.71234        -2.15677
O         -2.60123        -7.20473        -1.37529
H         -2.32177        -6.31289        -1.68077
O          2.43357        -5.58408        -1.17840
H          3.32675        -5.70962        -1.57617
O          0.08474        -9.87541        -2.03832
H         -0.77722       -10.13519        -2.42350
O         -4.07664         8.18356         1.30902
H         -3.25255         8.53842         1.72211
O         -8.14851        -1.01338        -1.69410
H         -8.82746        -0.73395        -2.34324
H         12.19219        -1.12330        -0.94318
H         12.20082         1.30849        -0.72595
H         10.57886         2.84512         1.17672
H          9.74014         5.62812        -0.29447
H          8.38108         7.90988        -0.05987
H          7.15822         9.91042        -0.38959
H          5.04305        11.14809        -0.62714
H          2.62200        11.23021        -0.21533
H          0.19018        11.08944        -0.92866
H         -2.56302        11.15987        -0.95298
H         -5.07352        11.13584        -0.93976
H         -7.16997         9.91084        -0.88624
H         -8.44837         7.79491        -0.61364
H         -9.73202         5.55134        -0.07472
H        -10.99531         3.38569         0.02118
H        -12.14011         1.16299        -0.79338
H        -12.11989        -1.27211        -0.99518
H        -11.04226        -3.44064        -0.28003
H         -9.80739        -5.60438        -0.41682
H         -8.59802        -7.80262         0.10849
H         -7.18670       -10.03954        -0.08290
H         -5.08632       -11.21495        -0.14241
H         -2.54945       -11.11355        -0.63903
H          0.01968       -11.13888        -0.36720
H          2.48217       -11.01927        -0.66730
H          4.60235       -10.79819        -1.44468
H          6.55872        -9.73118        -2.17443
H          7.82725        -7.26681        -2.32045
H          9.50407        -5.49858        -1.30476
H         10.83159        -3.41596        -0.99846
