         314
 CSIRO Nanostructure Databank - Neutral Graphene Oxide Data Set
C         30.86199        57.35263        -0.56387
C         31.00145        58.72587        -0.77470
C         30.18183        59.46440        -1.66358
C         31.55476        61.47016        -1.39657
C         30.45075        60.80992        -1.94028
C         32.74489        52.91877         0.27572
C         32.94929        54.37059         0.27627
C         31.81568        55.16021         0.05859
C         33.07388        57.18443         0.55746
C         31.89122        56.57325         0.05133
C         33.11478        58.63934         0.69708
C         32.05625        59.45514        -0.04610
C         33.59789        61.38729        -0.00579
C         32.41860        60.81707        -0.47732
C         35.10454        48.51310        -0.25737
C         34.79009        49.85388        -0.57315
C         33.67262        50.60828        -0.18722
C         35.57755        53.09601        -0.02606
C         33.63453        52.03836        -0.29937
C         35.45053        54.29039         0.65830
C         34.20378        55.02303         0.57410
C         35.35061        57.01527         1.58778
C         34.22365        56.41984         0.85921
C         35.38241        58.49883         1.71258
C         34.40185        59.26784         1.02686
C         35.78189        61.29536         1.12610
C         34.57085        60.65645         0.75435
C         37.56004        44.28809        -0.37228
C         37.65331        45.71261        -0.15931
C         36.44834        46.50118        -0.23190
C         37.71801        48.60928        -0.56768
C         36.38651        47.89051        -0.36696
C         37.78970        50.05777        -0.12070
C         36.77650        50.91144        -0.42329
C         37.89108        52.76052         1.01466
C         36.65005        52.18388         0.27541
C         37.87169        54.19669         1.34650
C         36.61310        54.83852         1.36477
C         38.40903        56.88254         2.75688
C         36.36575        56.13213         1.98006
C         38.40295        58.31301         2.84180
C         36.41343        59.28532         2.29558
C         37.97284        61.26351         2.45817
C         36.69585        60.61683         1.92444
C         40.12110        40.04784        -0.05358
C         40.13969        41.46120         0.17672
C         38.92826        42.11069        -0.24691
C         40.31677        44.44898         0.42873
C         38.52311        43.40463         0.13728
C         40.17880        45.76181        -0.05779
C         38.89293        46.39301        -0.04269
C         40.05528        48.58777        -0.64838
C         38.90687        47.88919         0.08993
C         40.23068        49.97809        -0.07738
C         39.04337        50.66618         0.31091
C         40.36932        52.71230         0.67214
C         39.12603        52.01095         0.72365
C         40.43214        54.08482         1.06714
C         39.25472        54.65538         1.89291
C         40.65242        56.87692         1.93838
C         39.39434        56.14801         2.15467
C         40.59871        58.40336         1.88350
C         39.34007        59.10126         2.20696
C         40.33492        61.23246         1.55599
C         39.23896        60.53513         2.01456
C         42.68471        35.80959         0.62214
C         42.61067        37.21513         0.62686
C         41.37188        37.81683         0.18508
C         42.78214        40.19746         0.98483
C         41.00767        39.11964         0.53217
C         42.63944        41.55829         0.61849
C         41.38698        42.19935         0.48579
C         42.62037        44.33501        -0.17597
C         41.45460        43.64395         0.25450
C         42.56241        45.67348        -0.62134
C         41.35620        46.41134        -0.56247
C         42.50965        48.52615        -1.05791
C         41.34955        47.83400        -0.79091
C         42.53362        50.00193        -0.91854
C         41.43607        50.65070        -0.16114
C         42.74849        52.76361        -0.01722
C         41.53774        52.04106         0.18513
C         42.77663        54.14502         0.22465
C         41.63073        54.77331         0.83711
C         42.96215        56.96934         0.78601
C         41.81654        56.15551         1.32269
C         42.86428        58.44553         0.74929
C         41.51896        59.10019         0.90922
C         42.69678        61.29484         0.82270
C         41.55886        60.59217         1.13411
C         45.07491        33.03647         1.34324
C         43.89643        33.68687         1.04525
C         45.08590        35.84106         1.11570
C         43.86876        35.10822         0.93786
C         45.06138        37.25183         0.93573
C         43.84519        37.96234         0.84228
C         45.15068        40.09700         0.46088
C         43.91426        39.40769         0.75477
C         45.15564        41.48421         0.23772
C         43.92668        42.26999         0.44358
C         45.14795        44.29833        -0.59570
C         43.93239        43.71035         0.01078
C         45.08492        45.58932        -1.09407
C         43.78191        46.29386        -1.18665
C         45.05853        48.54518        -1.40878
C         43.74763        47.80245        -1.41464
C         45.01186        50.02765        -1.65554
C         43.79789        50.75660        -1.12861
C         45.13491        52.87288        -0.94637
C         44.03539        52.02242        -0.33037
C         45.08785        54.24459        -0.79753
C         43.95557        54.91937        -0.18222
C         45.13430        57.11214        -0.40948
C         43.98479        56.30577        -0.04381
C         45.14598        58.51270        -0.13437
C         43.94695        59.18278         0.33676
C         45.06254        61.36207         0.13663
C         43.91438        60.64136         0.40084
C         46.26399        33.76777         1.57822
C         47.54780        35.90164         1.86035
C         46.28662        35.14991         1.47148
C         47.65764        37.26137         1.18848
C         46.35328        37.93885         0.72647
C         47.59873        40.08671         0.51871
C         46.38558        39.38741         0.53227
C         47.60974        41.46770         0.12163
C         46.36217        42.16265        -0.11475
C         47.59146        44.09809        -1.07085
C         46.35056        43.50765        -0.57482
C         47.62360        45.54140        -1.48354
C         46.29863        46.27550        -1.61532
C         47.60521        48.47138        -2.02744
C         46.33962        47.78572        -1.55577
C         47.58483        50.00889        -2.31833
C         46.28864        50.77644        -1.88354
C         47.53036        52.92804        -1.50887
C         46.33333        52.21369        -1.46474
C         47.54070        54.34894        -1.28767
C         46.21396        55.06490        -1.40623
C         47.48883        57.22022        -1.06260
C         46.28576        56.48835        -0.92200
C         47.47036        58.62466        -0.86432
C         46.29817        59.27553        -0.42410
C         47.46028        61.45475        -0.38124
C         46.29188        60.72252        -0.23892
C         48.78045        38.14001         1.48112
C         49.96414        40.28450         1.19834
C         48.81266        39.46831         1.02741
C         49.99756        41.61931         0.73043
C         48.82190        42.17214         0.11478
C         50.08265        44.31008        -0.41801
C         48.91107        43.44949        -0.59193
C         50.05540        45.66389        -0.87258
C         48.88285        46.29548        -1.32276
C         50.11202        48.51891        -1.40452
C         48.90144        47.70953        -1.80101
C         50.05854        50.01185        -1.33867
C         48.87766        50.75668        -1.90510
C         50.04849        52.94138        -1.16767
C         48.83742        52.23715        -1.66084
C         49.98376        54.31499        -1.03003
C         48.73773        55.04696        -1.13846
C         49.94877        57.22153        -1.09412
C         48.75865        56.51034        -1.14728
C         49.98071        58.66932        -1.35156
C         48.66360        59.42574        -1.18009
C         49.89832        61.52472        -0.64564
C         48.70824        60.84462        -0.75165
C         51.13769        42.44417         0.85412
C         52.33349        44.55776         0.56046
C         51.19539        43.76970         0.32431
C         52.55861        45.77106        -0.20630
C         51.36667        46.35408        -0.98340
C         52.70695        48.60880        -1.15076
C         51.43868        47.80883        -1.36163
C         52.56517        50.10970        -1.16231
C         51.32709        50.78399        -1.19154
C         52.52555        52.91063        -0.91881
C         51.30530        52.20100        -1.09443
C         52.50755        54.37352        -0.97729
C         51.21790        55.06590        -0.71166
C         52.50295        57.30799        -0.77633
C         51.21517        56.55921        -0.73698
C         52.49633        58.67955        -0.82548
C         51.26864        59.42109        -1.19117
C         52.40778        61.52444        -0.27339
C         51.21192        60.90660        -0.88260
C         53.64096        46.68677         0.15748
C         54.90108        48.71364         0.27193
C         53.78897        47.97148        -0.30493
C         55.40601        49.87739        -0.26426
C         53.73364        50.88478        -1.20947
C         55.02312        52.95769        -0.53494
C         53.78450        52.26427        -0.91659
C         55.00891        54.35942        -0.44285
C         53.80460        55.13262        -0.82008
C         54.88597        57.25898        -0.13122
C         53.73716        56.58275        -0.54620
C         54.89882        58.70263        -0.07866
C         53.78812        59.46821        -0.76232
C         54.77611        61.52978         0.30815
C         53.61038        60.86591        -0.18595
C         56.26209        50.86007         0.30468
C         57.29195        53.01083         0.47994
C         56.18470        52.23951         0.01622
C         57.30403        54.40062         0.51034
C         56.10335        55.11442         0.11388
C         57.10575        57.20359         1.07092
C         56.04062        56.50097         0.26879
C         57.18327        58.69019         0.83425
C         56.00639        59.39366         0.40677
C         57.16231        61.52972         0.90133
C         55.98476        60.85048         0.50321
C         58.47198        55.12691         0.88987
C         59.59888        57.25632         1.37139
C         58.44748        56.51097         1.05178
C         59.56770        58.66580         1.47969
C         58.34158        59.38284         1.17001
C         59.54209        61.51142         1.54707
C         58.34657        60.83334         1.18792
C         60.72347        59.40313         1.81421
C         60.69956        60.80271         1.85316
O         49.20911        59.11423        -2.50127
O         31.98584        59.25600         1.40447
O         36.87255        52.00405         1.72597
O         37.19639        58.79093         3.35177
O         45.30997        50.53260        -2.97221
O         42.77671        50.80420        -2.15367
O         37.16111        56.35684         3.11725
O         39.53273        48.75209        -2.03253
O         52.35800        45.56182        -1.66219
O         49.78056        49.21070        -0.13372
O         53.23675        54.84913        -2.15932
O         48.40140        43.29739        -1.96844
O         43.01163        56.35046         2.14416
O         54.91303        50.23069        -1.53839
O         46.92562        45.70488        -2.78140
O         39.28073        43.94466         1.21094
O         47.24139        37.22515        -0.21152
O         51.13800        55.79917         0.55473
O         49.22078        51.67536        -2.98832
O         52.36832        48.03896        -2.45581
O         43.58174        46.87971        -2.52723
O         45.89764        48.25115        -0.23083
O         51.48466        60.40504        -2.25994
O         48.31710        47.83563        -3.12056
O         34.67873        52.70151        -1.01826
O         44.13946        43.35373         1.43184
O         38.06935        48.51940        -1.98841
O         41.70862        39.61582         1.65695
O         35.77598        50.53440        -1.31633
O         41.13095        57.72187         3.04266
O         38.03474        62.63735         2.10068
H         38.09318        62.70633         1.12629
O         44.55978        51.54972         0.95149
H         44.64663        52.32193         1.54995
O         39.01015        48.18111         1.49663
H         38.38524        47.60501         1.98371
O         47.55378        50.03157        -3.75178
H         47.87395        50.91055        -4.05468
O         45.91072        55.16581        -2.84056
H         45.83659        54.25274        -3.19288
O         56.63926        57.08457         2.47466
H         57.32559        57.50000         3.03999
O         48.71450        35.12897         1.55506
H         48.78642        35.07416         0.57938
O         54.20811        59.66058        -2.15317
H         53.42937        60.05223        -2.61876
O         40.84583        58.89759        -0.39044
H         41.33115        59.42305        -1.06221
O         39.37751        54.00597         3.18805
H         38.63392        54.31445         3.74872
H         30.01955        56.82096        -1.03194
H         29.34615        58.95905        -2.16881
H         31.77738        62.50405        -1.69757
H         29.80228        61.34802        -2.64593
H         31.80066        52.54492         0.69919
H         30.86691        54.67533        -0.21320
H         33.83936        62.42418        -0.28536
H         34.28930        47.87934         0.12710
H         32.86871        50.11975         0.38136
H         35.95383        62.34423         0.84556
H         36.73054        43.90774        -0.98600
H         35.49587        45.95076        -0.18761
H         37.93091        61.21628         3.58031
H         39.31841        39.65829        -0.69929
H         38.23439        41.51415        -0.85956
H         40.29350        62.33235         1.52942
H         41.77151        35.23339         0.41032
H         40.72088        37.22025        -0.47180
H         42.70576        62.39125         0.92285
H         45.09345        31.94084         1.42767
H         42.96669        33.11959         0.89510
H         45.05116        62.45795         0.23614
H         47.18494        33.23740         1.85907
H         47.54307        36.04781         2.97592
H         47.44932        62.53542        -0.17412
H         49.61045        37.75020         2.08873
H         50.86657        39.85149         1.65422
H         49.88788        62.55504        -0.25734
H         52.03003        42.04873         1.36110
H         53.09530        44.22407         1.28000
H         52.33125        62.56726         0.07283
H         54.39000        46.30154         0.86680
H         55.34179        48.31477         1.19775
H         54.71118        62.60025         0.55603
H         57.02604        50.53833         1.02957
H         58.18010        52.46862         0.83800
H         57.14948        62.62760         0.97231
H         59.41565        54.57741         1.02807
H         60.55867        56.73237         1.49807
H         59.54427        62.61042         1.57772
H         61.65475        58.86521         2.04253
H         61.61439        61.34916         2.12267
