         229
 CSIRO Nanostructure Databank - Neutral Graphene Oxide Data Set
C        -11.10999         0.67938        -0.44290
C         -9.91262         1.42611        -0.05507
C         -8.63210         0.73835         0.04470
C         -7.39722         1.45986         0.08321
C         -6.16578         0.81021         0.00397
C         -4.91282         1.48861         0.22340
C         -3.67609         0.79683         0.04102
C         -2.46649         1.51296         0.18021
C         -1.16301         0.92214        -0.27991
C          0.00842         1.36739         0.66852
C          1.32243         0.71605         0.27684
C          2.52592         1.42819         0.33940
C          3.76439         0.75841         0.42995
C          5.01511         1.50949         0.24755
C          6.34350         0.83823         0.60654
C          7.47186         1.36532        -0.28930
C          8.80267         0.71173         0.00965
C          9.98878         1.43120        -0.28222
C         11.23393         0.68504        -0.31353
C         -9.91774         2.81929        -0.10341
C         -8.73142         3.61484         0.10421
C         -7.48867         2.88530         0.42871
C         -6.18388         3.64222         0.55346
C         -4.90964         2.89048         0.43720
C         -3.69733         3.57343         0.60308
C         -2.47176         2.87162         0.56435
C         -1.21137         3.57035         0.94011
C          0.07466         2.91189         0.64248
C          1.23794         3.59472         0.53925
C          2.44418         2.88310        -0.03325
C          3.74749         3.63247         0.22427
C          4.97483         2.82094        -0.15960
C          6.16003         3.45215        -0.89097
C          7.45696         2.91605        -0.22055
C          8.75809         3.58550        -0.62888
C          9.95826         2.80908        -0.58841
C         -8.68693         5.00100         0.03959
C         -7.44537         5.74810         0.09849
C         -6.23245         5.07559         0.26485
C         -4.95683         5.78825         0.13247
C         -3.68801         5.05122         0.43334
C         -2.49354         5.85001         0.84784
C         -1.19329         5.11296         0.97976
C          0.03215         5.80598         0.67275
C          1.34316         5.09181         0.87597
C          2.46621         5.79782         0.11375
C          3.58336         5.00984        -0.37663
C          4.89961         5.74513        -0.84565
C          6.18487         4.98304        -0.94862
C          7.47869         5.73035        -0.80552
C          8.74807         4.96336        -0.72139
C         -7.41464         7.17796        -0.12334
C         -6.23172         7.91772        -0.11950
C         -4.96507         7.26469         0.10507
C         -3.76953         7.96150         0.10501
C         -2.50835         7.30941         0.52313
C         -1.23837         7.99934         0.29126
C          0.03716         7.31515         0.70833
C          1.26381         7.94328         0.10702
C          2.41804         7.18262        -0.14120
C          3.59674         7.88861        -0.84086
C          4.91763         7.16793        -0.69002
C          6.15777         7.83480        -0.44448
C          7.37530         7.15282        -0.43944
C         -6.18439         9.34365        -0.35719
C         -5.00010        10.02488        -0.41632
C         -3.72864         9.37147        -0.19491
C         -2.50270        10.02610        -0.27829
C         -1.24473         9.34505        -0.06803
C          0.01360        10.03905        -0.20506
C          1.22593         9.35941        -0.14936
C          2.50360        10.04199        -0.26432
C          3.66668         9.34655        -0.44582
C          4.95739         9.98088        -0.29133
C          6.12123         9.27927        -0.25291
C        -11.28225        -0.66171        -0.68329
C        -10.32768        -1.70785        -0.33897
C         -8.54524        -0.64673         0.14383
C         -7.44241        -1.39335        -0.40990
C         -6.12881        -0.58081        -0.45915
C         -4.87631        -1.32939        -0.31786
C         -3.67442        -0.65259        -0.16357
C         -2.42191        -1.39120        -0.26609
C         -1.17002        -0.60623        -0.46192
C          0.13174        -1.36277        -0.34743
C          1.35524        -0.67310         0.10203
C          2.56291        -1.38679         0.25182
C          3.75847        -0.65821         0.49185
C          5.03399        -1.39727         0.64839
C          6.33482        -0.67892         0.58842
C          7.58565        -1.40398         0.27635
C          8.80243        -0.70732         0.15354
C         10.04847        -1.45341        -0.01258
C         11.25644        -0.67271        -0.21168
C         -9.97968        -2.87946        -0.95229
C         -8.71471        -3.60433        -0.68023
C         -7.44903        -2.88074        -0.48671
C         -6.22894        -3.52339        -0.47083
C         -4.97740        -2.78357        -0.11757
C         -3.65372        -3.52919         0.00709
C         -2.40676        -2.77760        -0.25482
C         -1.16661        -3.57801        -0.45554
C          0.14515        -2.86053        -0.35222
C          1.34671        -3.56691         0.15493
C          2.51256        -2.84478         0.30472
C          3.78146        -3.54800         0.59007
C          5.01518        -2.81847         0.19206
C          6.27694        -3.56839        -0.02850
C          7.55078        -2.86492         0.35705
C          8.87641        -3.65682         0.17287
C         10.06954        -2.83286        -0.07079
C         -8.70004        -4.98225        -0.68292
C         -7.45535        -5.75270        -0.81542
C         -6.14648        -4.96212        -0.79715
C         -4.86624        -5.69575        -0.53845
C         -3.67276        -4.97891        -0.18609
C         -2.44590        -5.77543        -0.10594
C         -1.14888        -5.05331        -0.18396
C          0.08390        -5.70036         0.33327
C          1.27389        -4.99417         0.43745
C          2.49419        -5.71873         0.87235
C          3.82451        -5.02258         0.80649
C          5.05511        -5.78519         0.50895
C          6.21691        -5.09771        -0.20363
C          7.55859        -5.79509        -0.04278
C          8.76549        -5.05761        -0.20780
C         -7.40156        -7.20285        -0.51208
C         -6.23777        -7.88102        -0.28853
C         -4.90820        -7.20127        -0.29129
C         -3.83525        -7.86836         0.62863
C         -2.45972        -7.08308         0.70050
C         -1.20359        -7.84981         0.33589
C          0.04006        -7.15674         0.40078
C          1.24505        -7.89081         0.37553
C          2.50615        -7.23704         0.73837
C          3.79801        -7.90890         0.53462
C          5.00619        -7.18948         0.46597
C          6.29604        -7.99179         0.29694
C          7.53083        -7.17387         0.01459
C         -6.17376        -9.32816        -0.15618
C         -4.98446        -9.98785        -0.06113
C         -3.71529        -9.29894         0.09781
C         -2.51090        -9.92152        -0.06634
C         -1.22800        -9.24438         0.06676
C         -0.02280        -9.93561        -0.11924
C          1.24413        -9.29343         0.07096
C          2.45805        -9.98041        -0.03992
C          3.80679        -9.40572         0.30526
C          4.88616        -9.76493        -0.70012
C          6.04255        -9.09033        -0.72658
O         -0.25526         0.96925         1.94936
O          2.36202        -6.54207         2.05145
O          6.86215         5.44834        -2.17202
O         -1.22405         4.25645         2.20922
O          3.89734         3.87554         1.64009
H          3.87559         3.01955         2.11721
O          5.76652        -1.18935         1.88975
O          3.93993        -4.06876         1.95168
O          7.29474         3.37997         1.14408
H          7.86054         2.84227         1.73819
O          6.57481        -8.64735         1.56317
H          5.83165        -9.28020         1.74179
O         -2.66679         6.78139         1.96355
O         -0.87491         1.53865        -1.55721
H         -0.55658         0.81427        -2.15277
O          1.60023         5.14132         2.30929
H          1.28301         6.02099         2.62979
O          5.90926        -5.35836        -1.61122
H          5.51215        -4.53176        -1.98183
O          4.19866       -10.04910         1.58481
H          3.55704        -9.75491         2.26721
O         -4.36437        -7.97265         1.90169
O          7.21918         0.85487        -1.62155
H          6.65389         1.49120        -2.12911
O         -6.74786        -5.35049        -2.05796
O          6.60676         1.19791         1.98444
H          6.16992         0.50718         2.53954
O         -2.28773        -6.68946         2.06828
H         -3.05945        -7.13282         2.54415
O          6.01343         3.04144        -2.27049
H          6.38879         3.76616        -2.82736
O         -9.54553        -1.35746         0.79587
O          5.56101        -2.93146        -1.15755
O         -0.35053        -3.33686        -1.64770
O          8.23248        -3.42812         1.50033
O          0.12488         7.51300         2.19266
H         -0.78148         7.30836         2.54017
O          2.24963         2.89830        -1.47753
H          1.39511         2.45524        -1.67719
O          3.27064         7.85903        -2.26713
H          3.32658         6.91306        -2.54572
O         -4.06540         5.29722        -0.97839
O         -4.51072        -6.76228        -1.58099
O         -6.92142        -0.81484        -1.66584
O         -0.38776        -0.90857        -1.65968
O          3.89808         5.19679        -1.77500
O         -6.94769         3.23013         1.74969
O         -4.43110        -3.13935         1.21111
O         -1.67583        -5.83093        -1.34602
H         12.21196        -1.21231        -0.29056
H         12.16971         1.23910        -0.48002
H         10.91036         3.31540        -0.81325
H          9.69130         5.51811        -0.84570
H          8.29940         7.70850        -0.22187
H          7.07515         9.80098        -0.08896
H          4.97290        11.06984        -0.13078
H          2.53173        11.12851        -0.08636
H          0.00332        11.11754        -0.41870
H         -2.47913        11.09884        -0.52175
H         -5.00084        11.10409        -0.62991
H         -7.13168         9.87810        -0.52265
H         -8.36863         7.69733        -0.30031
H         -9.61469         5.56147        -0.15311
H        -10.86254         3.34431        -0.31500
H        -11.96336         1.32312        -0.71625
H        -12.21830        -0.97116        -1.17509
H        -10.60309        -3.27006        -1.77089
H         -9.65119        -5.53591        -0.67683
H         -8.35722        -7.75028        -0.49071
H         -7.11367        -9.89423        -0.23896
H         -4.97187       -11.08872        -0.09013
H         -2.49316       -10.98462        -0.35640
H         -0.04392       -11.00983        -0.35562
H          2.43312       -11.05369        -0.28534
H          4.69596       -10.59356        -1.39932
H          6.83538        -9.35737        -1.44157
H          8.48511        -7.72287         0.05911
H          9.67912        -5.59308        -0.51103
H         11.00735        -3.34648        -0.33391
