         210
 CSIRO Nanostructure Databank - Neutral Graphene Oxide Data Set
C         30.60156        31.73574         1.55251
C         30.76773        32.96197         1.73000
C         30.76727        36.08366         1.79136
C         30.74039        37.32683         1.66602
C         30.63224        40.42432         1.08307
C         30.53675        41.64930         0.81731
C         32.33065        29.10093        -0.46882
C         31.50592        29.66268         0.30438
C         32.78458        31.65556         0.49175
C         31.55447        30.95418         0.84107
C         32.90812        33.08312         0.75119
C         31.82673        33.81974         1.35672
C         32.98211        35.96591         0.96989
C         31.83704        35.22668         1.40746
C         32.98112        37.40761         0.92647
C         31.79215        38.16760         1.22042
C         32.91809        40.28340         0.57164
C         31.74450        39.56093         0.98752
C         32.88467        41.69682         0.30297
C         31.62638        42.43969         0.39408
C         32.84151        44.33468        -0.28581
C         31.75486        43.80904         0.04601
C         35.57630        27.19145        -1.04216
C         35.48112        28.59987        -1.15636
C         33.53283        29.73502        -0.85568
C         35.13134        31.64146        -0.56674
C         33.80250        30.98027        -0.26426
C         35.21909        33.11236        -0.26307
C         34.05143        33.81876         0.32947
C         35.32452        35.95009         0.18802
C         34.11776        35.22661         0.50440
C         35.36409        37.37198         0.28513
C         34.16471        38.11482         0.57278
C         35.35490        40.26013         0.23170
C         34.14965        39.55374         0.46255
C         35.35428        41.65300        -0.03428
C         34.10904        42.36293        -0.05112
C         35.34188        44.42457        -0.66912
C         34.14316        43.77525        -0.36917
C         35.55709        45.78865        -1.01427
C         37.87788        27.27645        -0.23469
C         36.66834        26.70336        -0.62697
C         37.78166        28.68617        -0.30004
C         36.55596        29.35508        -0.63283
C         37.69413        31.60227        -0.00588
C         36.42680        30.83696        -0.34765
C         37.75909        33.08499        -0.21894
C         36.52795        33.81583        -0.18905
C         37.73471        35.96758        -0.44651
C         36.51003        35.21822        -0.13940
C         37.79447        37.40303        -0.13494
C         36.60350        38.07355         0.14972
C         37.86275        40.23451        -0.03927
C         36.64739        39.53714         0.49760
C         37.84377        41.63391        -0.25759
C         36.59665        42.34536        -0.29149
C         37.84216        44.40500        -0.90459
C         36.61170        43.72690        -0.63828
C         37.91151        45.82568        -1.48307
C         36.55631        46.48209        -1.24772
C         40.17083        24.93409         1.46311
C         39.13026        25.38613         0.95778
C         40.33871        27.38928         0.35076
C         39.15663        26.50980        -0.06488
C         40.31978        28.73519         0.00167
C         39.07577        29.46795        -0.47115
C         40.24588        31.64771        -0.25595
C         39.03444        30.86547         0.19737
C         40.26054        33.02640        -0.32975
C         38.99433        33.74003        -0.31301
C         40.31293        35.92509        -0.32667
C         39.04828        35.18995        -0.55215
C         40.29662        37.35153        -0.21601
C         39.05716        38.07489        -0.15560
C         40.30990        40.21522        -0.20357
C         39.07041        39.50822        -0.12967
C         40.30894        41.63679        -0.29357
C         39.07484        42.34205        -0.42545
C         40.33412        44.47477        -0.64689
C         39.07566        43.75148        -0.68144
C         40.30155        45.93913        -0.61491
C         39.04975        46.58334        -0.86980
C         40.05483        48.65798        -0.11119
C         39.11755        47.94042        -0.57139
C         42.69544        25.11551         2.13114
C         41.46986        25.51707         1.59924
C         42.73554        27.58357         0.92312
C         41.51680        26.82986         0.95767
C         42.75225        28.89767         0.35880
C         41.52993        29.47966        -0.00903
C         42.77103        31.62799        -0.60976
C         41.47008        30.87630        -0.48368
C         42.74884        33.09161        -0.46285
C         41.52476        33.76437        -0.41599
C         42.76856        35.91391        -0.18494
C         41.52287        35.20907        -0.30180
C         42.76698        37.33757        -0.05423
C         41.52831        38.05934        -0.08891
C         42.74197        40.22975         0.07726
C         41.53584        39.50196        -0.07868
C         42.75995        41.63754        -0.00818
C         41.54203        42.35212        -0.25246
C         42.81259        44.49442        -0.31596
C         41.52730        43.77474        -0.40171
C         42.75669        46.02915        -0.18118
C         41.43396        46.70229        -0.19804
C         42.55418        48.67785         0.60720
C         41.33259        48.11036         0.11797
C         43.75079        25.81695         2.04406
C         45.20391        27.76387         1.25447
C         43.97110        27.06303         1.45651
C         45.27840        28.96821         0.50802
C         44.01535        29.61278         0.16703
C         45.25970        31.60706        -0.76521
C         44.02027        30.90556        -0.30605
C         45.24145        33.08753        -0.41243
C         44.01460        33.77977        -0.34504
C         45.23833        35.91675        -0.09408
C         44.00632        35.20864        -0.19561
C         45.22293        37.33993         0.08003
C         43.99777        38.03137         0.11275
C         45.25563        40.20639         0.32889
C         43.95856        39.47584         0.55030
C         45.22873        41.65663         0.39446
C         43.99754        42.36751         0.21455
C         45.18442        44.51633         0.52156
C         44.01481        43.78184         0.16929
C         45.13170        45.96865         0.64164
C         43.94611        46.68378         0.43485
C         43.62022        48.02447         0.71242
C         47.58125        27.78448         1.28649
C         46.49114        27.30471         1.65859
C         47.78695        28.82395         0.34106
C         46.53956        29.56757         0.08621
C         47.72346        31.66093        -0.71770
C         46.55058        30.89007        -0.44015
C         47.71309        33.10812        -0.56000
C         46.47349        33.79569        -0.35226
C         47.71984        35.91948        -0.05996
C         46.47905        35.21512        -0.17067
C         47.68843        37.32985         0.21622
C         46.47912        38.04115         0.24156
C         47.71947        40.23582         0.28072
C         46.44221        39.49679         0.31260
C         47.71375        41.72900         0.58777
C         46.40410        42.38261         0.65236
C         47.56482        44.42848         1.37158
C         46.38343        43.79431         0.85808
C         47.39167        45.81916         1.36555
C         46.36985        46.49931         1.09320
C         50.32681        28.86221        -0.13254
C         48.94571        29.00140        -0.42168
C         50.21114        31.65824        -1.06997
C         48.93074        31.03266        -1.09383
C         50.16984        33.15163        -1.05706
C         48.92521        33.83658        -0.62557
C         50.22133        35.91440        -0.11510
C         48.95621        35.22613        -0.27783
C         50.29689        37.30107         0.53047
C         48.94904        38.01896         0.60213
C         50.21970        40.30784         0.63032
C         48.95835        39.51489         0.66688
C         50.16671        41.70233         0.99096
C         48.90056        42.32831         1.20323
C         50.05740        44.31828         1.84586
C         48.70691        43.65592         1.96047
C         51.26154        29.55261        -0.62589
C         52.57243        31.78765        -0.92945
C         51.43186        30.92526        -0.91514
C         52.61171        33.02461        -0.80052
C         51.50390        33.95675        -0.97457
C         52.54255        36.18325        -0.22510
C         51.43396        35.29033        -0.38670
C         52.65437        37.41540        -0.14835
C         51.36020        38.23055        -0.20708
C         52.53032        40.47458         0.49720
C         51.42197        39.62061         0.36592
C         52.54453        41.68541         0.87346
C         51.41312        42.45980         1.13698
C         51.15099        43.79524         1.57951
O         48.78688        38.72477         1.89993
O         38.32038        35.62409        -1.74816
O         34.40502        29.19532        -1.78036
O         36.78515        31.15422         1.06156
O         42.08164        31.11023        -1.81156
O         43.08193        45.37713        -1.45261
O         50.80396        33.79210        -2.22113
O         35.04207        32.57372        -1.66714
O         47.93479        41.17459        -0.78790
O         48.77537        29.73672        -1.62720
O         39.49872        25.94921        -1.33692
H         38.74524        25.40448        -1.64847
O         39.21487        30.67378         1.61859
H         38.31446        30.62132         2.01846
O         48.41228        43.40116         3.34205
H         49.20029        42.99856         3.76299
O         38.13572        45.70900        -2.88665
H         38.31415        46.59898        -3.25512
O         50.76078        37.08574         1.86951
H         50.30148        37.73662         2.45069
O         45.19875        31.57076        -2.23981
H         44.25546        31.62227        -2.51025
O         43.80112        39.42373         2.02301
H         44.55728        38.91081         2.38109
O         36.79607        39.57860         1.97960
H         36.91336        40.51877         2.23493
O         50.96032        38.33408        -1.56228
H         51.56295        38.94498        -2.03510
O         39.18423        29.71155        -1.89201
H         39.47494        28.88822        -2.33708
