         236
 CSIRO Nanostructure Databank - Neutral Graphene Oxide Data Set
C        -11.19009         0.71408        -0.20002
C         -9.93664         1.44608        -0.11058
C         -8.74039         0.74269         0.32218
C         -7.55875         1.44178         0.55753
C         -6.35631         0.72907         1.06722
C         -5.07752         1.52914         1.38526
C         -3.79412         0.69099         1.24140
C         -2.48613         1.42797         1.30444
C         -1.25019         0.67546         0.95728
C          0.03102         1.43690         0.94753
C          1.13138         0.81668         0.09701
C          2.46915         1.48281         0.30456
C          3.66936         0.83139         0.26091
C          4.94905         1.54057         0.27025
C          6.17645         0.77428         0.61053
C          7.55516         1.48137         0.66648
C          8.54584         0.76004        -0.24159
C          9.81664         1.48315        -0.56449
C         11.05814         0.67699        -0.61458
C         -9.86058         2.76487        -0.47329
C         -8.52338         3.40195        -0.69172
C         -7.41305         2.81656         0.15364
C         -6.21856         3.54183         0.29502
C         -4.98532         2.90334         0.75087
C         -3.80105         3.59331         0.83857
C         -2.52085         2.93439         1.22267
C         -1.25019         3.69279         1.04894
C          0.02965         2.94003         1.07072
C          1.24980         3.70293         0.67780
C          2.43450         2.94848         0.19912
C          3.72748         3.64296        -0.07658
C          4.99349         2.87609        -0.00641
C          6.30539         3.53082        -0.39183
C          7.47520         3.04939         0.50289
C          8.75671         3.68252        -0.05739
C          9.86766         2.95231        -0.35933
C         -8.53940         4.89408        -0.72685
C         -7.35650         5.60493        -0.57653
C         -6.16543         4.93622        -0.08747
C         -4.96926         5.67520         0.02566
C         -3.79988         5.10263         0.79154
C         -2.46075         5.76792         0.51500
C         -1.24253         5.05264         0.87858
C          0.03732         5.84553         1.11129
C          1.29038         5.05159         0.81875
C          2.58984         5.78755         0.77976
C          3.81616         5.07369         0.33607
C          4.99452         5.82370        -0.17137
C          6.25790         5.06023        -0.43269
C          7.53392         5.81686        -0.33877
C          8.71898         5.13090        -0.19096
C         -7.29270         7.00107        -0.89441
C         -6.08027         7.67880        -0.89726
C         -4.90207         6.99475        -0.45561
C         -3.59447         7.64244        -0.61644
C         -2.41083         7.05212         0.04358
C         -1.21004         7.94351         0.31074
C          0.07694         7.14799         0.31653
C          1.36930         7.87380         0.15723
C          2.59489         7.30631         0.85199
C          3.87895         7.97149         0.37524
C          5.01112         7.29132         0.02524
C          6.26132         7.96325        -0.31690
C          7.44163         7.25701        -0.45095
C         -6.00254         9.09547        -1.22758
C         -4.83438         9.77988        -1.25766
C         -3.53744         9.09824        -1.08406
C         -2.29628         9.85374        -0.89820
C         -1.11951         9.24011        -0.47862
C          0.11748         9.92032        -0.53370
C          1.36274         9.33215        -0.15007
C          2.54533        10.04038        -0.11882
C          3.84928         9.48576         0.43412
C          5.07014        10.10662        -0.19806
C          6.19276         9.40877        -0.47144
C        -11.22494        -0.65068        -0.20982
C        -10.03036        -1.42768        -0.01606
C         -8.86622        -0.73485         0.65507
C         -7.56941        -1.46092         0.41114
C         -6.32835        -0.75372         0.81670
C         -5.04902        -1.39674         0.31492
C         -3.78020        -0.73379         0.80213
C         -2.50544        -1.42936         0.34215
C         -1.24438        -0.66604         0.67509
C          0.00649        -1.39794         0.42476
C          1.16113        -0.68168         0.19880
C          2.37760        -1.35950        -0.23136
C          3.70520        -0.59438        -0.13671
C          4.92466        -1.38030        -0.04132
C          6.16357        -0.72535         0.45454
C          7.45774        -1.42710         0.18963
C          8.56945        -0.73089        -0.15562
C          9.74974        -1.44876        -0.79265
C         11.03710        -0.66738        -0.63790
C         -9.96921        -2.77284        -0.33209
C         -8.75105        -3.52529        -0.25362
C         -7.54485        -2.79379         0.07976
C         -6.24309        -3.49295        -0.04132
C         -5.07598        -2.90295         0.72264
C         -3.76831        -3.62050         0.46915
C         -2.51317        -2.87233         0.91190
C         -1.20100        -3.60899         0.63599
C          0.02417        -2.84641         0.32871
C          1.17919        -3.54058        -0.08154
C          2.41765        -2.82021        -0.26059
C          3.64223        -3.44717        -0.47183
C          4.88060        -2.72368        -0.36572
C          6.12396        -3.53117        -0.29838
C          7.43748        -2.91722         0.11982
C          8.76418        -3.61676        -0.01066
C          9.85684        -2.88862        -0.33916
C         -8.70737        -4.92129        -0.48055
C         -7.52132        -5.68214        -0.43205
C         -6.23270        -4.97193        -0.33338
C         -5.01124        -5.68743         0.01798
C         -3.78800        -4.97951         0.20512
C         -2.51182        -5.66457        -0.25530
C         -1.22800        -5.06117         0.26171
C         -0.01580        -5.68502        -0.30032
C          1.14957        -4.95887        -0.39013
C          2.36373        -5.62248        -0.93419
C          3.65235        -4.88705        -0.82517
C          4.91962        -5.65747        -0.78324
C          6.05570        -4.89966        -0.85817
C          7.87287        -5.90600        -0.07649
C          8.79187        -5.03278         0.44451
C         -7.48622        -7.10515        -0.45077
C         -6.31394        -7.83527        -0.23567
C         -5.06140        -7.13735         0.11964
C         -3.73493        -7.91857         0.04537
C         -2.48700        -7.17709        -0.15568
C         -1.31975        -7.82858        -0.45510
C         -0.05179        -7.11607        -0.55800
C          1.13317        -7.82743        -0.66979
C          2.42161        -7.15391        -1.09693
C          3.69493        -7.77622        -0.51733
C          4.92079        -7.09927        -0.52549
C          6.12353        -7.74865         0.03439
C          7.36877        -7.18546         0.34779
C         -6.26038        -9.26842        -0.33057
C         -5.08514        -9.97924        -0.35701
C         -3.78165        -9.34752        -0.34063
C         -2.61641       -10.00414        -0.62721
C         -1.31459        -9.28317        -0.87915
C         -0.05111        -9.97172        -0.42753
C          1.13755        -9.26936        -0.46026
C          2.40787        -9.87555        -0.15502
C          3.60259        -9.16348        -0.12393
C          4.80411        -9.81481         0.33507
C          5.97351        -9.13010         0.44324
O          3.56018         5.25418         1.76897
O         -5.17417         1.85505         2.79518
H         -5.07323         1.00629         3.28341
O          0.74164         1.11523        -1.28065
H          1.46380         0.77303        -1.85751
O          6.58292         3.08645        -1.73406
H          6.04075         3.63838        -2.34139
O          2.99583        -0.74878        -1.42545
O          6.58966        -3.56534         1.12321
O          5.95955        -0.10325         1.76484
O          9.44511        -1.46988        -2.22366
H          9.24721        -0.53242        -2.47026
O          2.83013         3.37649        -1.18940
O         -3.79448        -0.41945         2.21602
O         -5.97070        -3.93850        -1.38282
O         -1.05625        -4.67740         1.66526
O          5.38831         5.47842        -1.54635
O          0.81467         7.05251        -0.92933
O         -4.38291        -7.65718         1.32819
O          7.26088         3.60318         1.76607
O         -1.22789        -9.23546        -2.35209
H         -0.45549        -8.67403        -2.58404
O          7.25205        -5.45794        -1.27055
O          2.44349         7.65003         2.26331
H          2.99824         7.00869         2.76456
O          0.36064         2.05982         2.21748
O         -3.33126         7.97269        -2.03055
O          3.85182         9.91689         1.83353
H          3.23797         9.30388         2.31301
O          2.46526        -7.44422        -2.52609
H          2.82627        -6.63005        -2.95804
O         -9.13993        -0.83854         2.09247
H         -8.29425        -0.60640         2.55287
O         -2.63648        -2.75017         2.34918
H         -2.21474        -3.55535         2.73395
O         -6.50502        -0.24442         2.17580
O         -2.52102        -5.44344        -1.64595
O         -5.16049        -1.25951        -1.10796
H         -4.34676        -1.62477        -1.53140
O         -2.45781         2.23784         2.52569
O          2.92673        -4.99883        -2.14226
O          0.01420         6.21692         2.52010
H         -0.06234         5.39702         3.05404
O          8.78257         1.18241        -1.61868
O         -5.38481        -2.97914         2.12607
H         -4.59794        -2.63478         2.61662
O         -8.15534         3.01222        -2.09512
H         -7.29885         3.44861        -2.29673
O         -2.54255        -1.52301        -1.10413
H         -1.71920        -1.95399        -1.42028
O         -1.41659         8.41629         1.67746
H         -1.12277         7.70207         2.29586
O         -4.04729         5.48899         2.19764
H         -4.58497         4.78395         2.62006
O          8.10106         1.27764         1.97660
H          7.83056         2.09598         2.48081
H         11.98478        -1.22794        -0.64763
H         12.01674         1.21578        -0.55291
H         10.78658         3.47296        -0.67851
H          9.67213         5.68413        -0.21400
H          8.37534         7.81886        -0.61286
H          7.08404         9.92825        -0.85592
H          5.05571        11.19821        -0.33827
H          2.51879        11.11955        -0.34234
H          0.12958        10.94906        -0.92835
H         -2.27745        10.90948        -1.21388
H         -4.83144        10.86707        -1.42639
H         -6.95043         9.62571        -1.40334
H         -8.21324         7.51576        -1.20681
H         -9.43721         5.40322        -1.10886
H        -10.76250         3.30765        -0.79405
H        -12.10706         1.28942        -0.39548
H        -12.16757        -1.17543        -0.42765
H        -10.86969        -3.27386        -0.72085
H         -9.65997        -5.45087        -0.63638
H         -8.42432        -7.65231        -0.63164
H         -7.21169        -9.80830        -0.45028
H         -5.12371       -11.07005        -0.49529
H         -2.65151       -11.07633        -0.87815
H         -0.04814       -11.05711        -0.24645
H          2.41993       -10.94146         0.11892
H          4.74883       -10.87170         0.63372
H          6.86404        -9.64179         0.83836
H          8.02974        -7.79495         0.98642
H          9.43083        -5.31143         1.29607
H         10.84692        -3.36865        -0.37904
