         424
 CSIRO Nanostructure Databank - Neutral Graphene Oxide Data Set
C          1.36200         2.15837         1.12942
C          1.33927         3.54716         0.96047
C          2.52365         1.44031         0.88867
C          2.48689         4.25573         0.53969
C          1.29702         6.46009         0.55117
C          1.24863         7.83084         0.34360
C          2.45985         5.68601         0.31008
C          2.35028         8.53919        -0.19331
C          1.14862        10.74794        -0.25615
C          1.13242        12.08138        -0.46624
C          2.36993         9.95504        -0.34815
C          2.39253        12.83004        -0.84298
C          1.23108        15.08385        -1.17940
C          1.29592        16.43243        -1.30904
C          2.33537        14.32560        -0.48011
C          2.49798        17.16059        -0.97869
C          2.55280        18.57001        -1.05000
C          3.70699         2.11400         0.48022
C          3.69380         3.53521         0.30242
C          4.90468         1.39762         0.27408
C          4.89393         4.21299        -0.11305
C          3.63358         6.32772        -0.19762
C          3.53379         7.75824        -0.55915
C          4.84128         5.63177        -0.34385
C          4.86859         8.54559        -0.74727
C          3.60686        10.65033        -0.44681
C          3.59375        12.14113        -0.16694
C          4.83462         9.97800        -0.46677
C          4.91317        12.80999        -0.45790
C          3.66599        15.01708        -0.65489
C          3.70277        16.41418        -0.72280
C          4.94981        14.26071        -0.85435
C          4.94730        17.12292        -0.57389
C          3.74211        19.25216        -0.85937
C          4.96426        18.54894        -0.61323
C          6.10005         2.06365        -0.06557
C          6.08773         3.47820        -0.29250
C          7.32128         1.33069        -0.08904
C          7.36285         4.11991        -0.83243
C          6.07723         6.33380        -0.88096
C          6.11130         7.80842        -0.54219
C          7.37440         5.62062        -0.56983
C          7.26019         8.49416        -0.21429
C          6.08547        10.65754        -0.26905
C          6.09321        12.12002        -0.31145
C          7.27249         9.93458        -0.16314
C          7.35495        12.82809        -0.13287
C          6.15580        14.98386        -0.31117
C          6.15105        16.39990        -0.29096
C          7.34101        14.25744        -0.02493
C          7.36118        17.10841        -0.03082
C          6.17775        19.23740        -0.41141
C          7.38032        18.54332        -0.12565
C          8.56205         2.01554        -0.03547
C          8.55931         3.41745        -0.23094
C          9.79086         1.30938         0.18155
C          9.71763         4.18545         0.15445
C          8.50488         6.30362        -0.27510
C          8.48374         7.72840         0.23272
C          9.83426         5.59176        -0.37876
C          9.79156         8.48072         0.09253
C          8.59362        10.65676        -0.32199
C          8.54653        12.11242         0.09226
C          9.80160         9.87738         0.14772
C          9.70790        12.79046         0.51745
C          8.54064        14.94744         0.33980
C          8.55396        16.39523         0.29666
C          9.69930        14.19702         0.67193
C          9.75040        17.11527         0.49200
C          8.60013        19.23429         0.04509
C          9.79723        18.53838         0.33028
C         11.02169         1.96627         0.27822
C         11.03097         3.43081         0.43238
C         12.26978         1.30153         0.21207
C         12.28268         4.17492         0.26949
C         11.03999         6.32929         0.15125
C         11.01518         7.75287         0.22692
C         12.25086         5.62049         0.27398
C         12.23526         8.46686         0.42701
C         11.00199        10.57754         0.45914
C         10.92621        12.00554         0.97896
C         12.20163         9.87891         0.60291
C         12.19257        12.81797         0.62212
C         10.90514        14.92564         1.15400
C         10.95585        16.41919         0.95804
C         12.22497        14.17537         1.34770
C         12.25021        17.10201         0.81728
C         11.03588        19.21825         0.45853
C         12.26044        18.51327         0.61753
C         13.49074         2.00998         0.20307
C         13.48344         3.46426         0.21929
C         14.72944         1.32488         0.13154
C         14.73548         4.17164         0.18449
C         13.49200         6.33911         0.34840
C         13.47537         7.74832         0.45638
C         14.73714         5.62377         0.25235
C         14.71517         8.48008         0.50872
C         13.45388        10.57955         1.07819
C         13.49222        12.06497         0.80097
C         14.72376         9.87880         0.66101
C         14.68422        12.73931         0.77346
C         13.46409        14.95654         0.95975
C         13.46778        16.35331         0.82185
C         14.76070        14.21391         1.12465
C         14.71822        17.06286         0.65209
C         13.50132        19.19591         0.55637
C         14.72645        18.49084         0.57286
C         15.95797         2.01186         0.06772
C         15.92873         3.45119         0.09437
C         17.20576         1.30925         0.00843
C         17.18966         4.18619        -0.05911
C         15.94436         6.34233         0.22241
C         15.94625         7.77201         0.34909
C         17.21490         5.64418         0.19552
C         17.15998         8.48587         0.32579
C         15.93796        10.60146         0.57885
C         15.94780        12.03711         0.62835
C         17.16821         9.88961         0.41914
C         17.14100        12.74654         0.36297
C         15.96320        14.92511         0.56927
C         15.94873        16.34640         0.52532
C         17.14312        14.20969         0.30805
C         17.17304        17.05721         0.36102
C         15.96757        19.18383         0.47470
C         17.18376        18.49568         0.38433
C         18.45180         1.95237        -0.02656
C         18.47827         3.43013        -0.11252
C         19.69953         1.29359        -0.06320
C         19.73288         4.13920         0.18713
C         18.41262         6.29903         0.29503
C         18.45191         7.77390         0.01504
C         19.67313         5.55164         0.69578
C         19.63967         8.49899         0.59850
C         18.40258        10.62719         0.31029
C         18.35671        12.02519         0.17995
C         19.66535         9.95247         0.35259
C         19.60132        12.70174        -0.21575
C         18.34878        14.93018         0.06508
C         18.38665        16.33816         0.18158
C         19.58789        14.23169        -0.29426
C         19.63908        17.04496         0.04502
C         18.43809        19.17775         0.31802
C         19.64398        18.49133         0.17170
C         20.92497         2.01006        -0.10183
C         20.92801         3.46174         0.08507
C         22.16013         1.35540        -0.23441
C         22.18022         4.18530         0.14490
C         20.95864         6.30457         0.48578
C         20.94512         7.75850         0.72156
C         22.16548         5.62340         0.31265
C         22.17542         8.53492         0.54413
C         20.88782        10.63749         0.27213
C         20.89392        12.03824        -0.01202
C         22.14802         9.91004         0.34021
C         22.09845        12.76976        -0.11658
C         20.87297        14.93199        -0.20421
C         20.84511        16.34815        -0.12767
C         22.09146        14.20311        -0.22951
C         22.09551        17.10457        -0.49625
C         20.90009        19.17901         0.22023
C         22.11255        18.52114         0.02563
C         23.39114         2.06146        -0.22266
C         23.39698         3.50129        -0.02555
C         24.61203         1.39206        -0.40886
C         24.63562         4.21533        -0.02391
C         23.41552         6.33419         0.30925
C         23.47294         7.79301         0.70280
C         24.62106         5.65182         0.13748
C         24.63641         8.52149         0.08577
C         23.37608        10.63594         0.10159
C         23.36035        12.06392        -0.03253
C         24.59061         9.90107        -0.07485
C         24.57487        12.78857        -0.06268
C         23.34541        14.92379        -0.21309
C         23.36584        16.33473        -0.23800
C         24.58233        14.20279        -0.13547
C         24.58855        17.03982        -0.19866
C         23.35544        19.17344         0.14780
C         24.58172        18.49448        -0.01943
C         25.84741         2.08361        -0.40584
C         25.86152         3.51440        -0.20171
C         27.06978         1.39354        -0.57074
C         27.10783         4.19802        -0.18264
C         25.86227         6.39030         0.06662
C         25.85770         7.77858        -0.07448
C         27.15583         5.64332         0.25964
C         27.09311         8.50699        -0.32876
C         25.80165        10.66385        -0.57152
C         25.86803        12.02373         0.13422
C         27.09568         9.88822        -0.45357
C         27.10270        12.80510        -0.25070
C         25.82695        14.92707        -0.21437
C         25.81644        16.33823        -0.25893
C         27.06524        14.18894        -0.29730
C         27.06925        17.13579        -0.56746
C         25.79855        19.17864         0.14866
C         27.05054        18.53801         0.00255
C         28.30003         2.07489        -0.57687
C         28.30566         3.50679        -0.40208
C         29.53985         1.38083        -0.68942
C         29.56631         4.21380        -0.46420
C         28.35688         6.38832        -0.25574
C         28.32352         7.75059        -0.43851
C         29.59062         5.63092        -0.41343
C         29.57788         8.47095        -0.88013
C         28.34209        10.63049        -0.50399
C         28.33598        12.06065        -0.40552
C         29.57083         9.94880        -0.57630
C         29.57701        12.73925        -0.36435
C         28.34485        14.93471        -0.62076
C         28.35019        16.39957        -0.25455
C         29.53839        14.18557        -0.08593
C         29.50552        17.08586        -0.04724
C         28.24829        19.20965         0.21663
C         29.51589        18.55289         0.05089
C         30.76593         2.05293        -0.69889
C         30.78166         3.50500        -0.64609
C         32.00977         1.35324        -0.68650
C         31.99785         4.21255        -0.79319
C         30.81276         6.31385        -0.54466
C         30.80055         7.79138        -0.25449
C         32.01573         5.61351        -0.73976
C         32.08978         8.49919        -0.58046
C         30.81516        10.63318        -0.44636
C         30.80974        12.06025        -0.32236
C         32.06291         9.93055        -0.42932
C         32.05603        12.79712        -0.24948
C         30.81997        14.91342         0.16312
C         30.82986        16.42640         0.28627
C         32.07581        14.19521        -0.11599
C         31.98655        17.07405        -0.43982
C         30.70957        19.24160        -0.03906
C         31.94606        18.57385        -0.50785
C         33.23784         2.01962        -0.72965
C         33.27043         3.47789        -1.13075
C         34.45632         1.34909        -0.50978
C         34.51856         4.21055        -0.67997
C         33.28174         6.35880        -1.12601
C         33.26600         7.80086        -0.67898
C         34.54452         5.62117        -0.72052
C         34.52681         8.44896        -0.19074
C         33.29791        10.65345        -0.38288
C         33.29804        12.07950        -0.33944
C         34.53011         9.95055        -0.34225
C         34.53062        12.77929        -0.29396
C         33.29090        14.94170        -0.32976
C         33.26553        16.33571        -0.46610
C         34.54336        14.21154        -0.35518
C         34.47986        17.09618        -0.76228
C         33.23488        19.38900        -0.57622
C         34.51307        18.56312        -0.53794
C         35.68389         2.04035        -0.37462
C         35.70141         3.49140        -0.42096
C         36.88931         1.35067        -0.12455
C         36.92390         4.19224        -0.19412
C         35.75235         6.31633        -0.54239
C         35.78048         7.80864        -0.77216
C         36.95280         5.61938        -0.25879
C         37.02307         8.49817        -0.25425
C         35.75325        10.63390        -0.25505
C         35.76274        12.06274        -0.22718
C         37.00383         9.90602        -0.14242
C         36.99312        12.76513        -0.07755
C         35.77104        14.88886        -0.35195
C         35.81662        16.32740        -0.63192
C         36.99786        14.19418        -0.11852
C         37.02110        17.06940        -0.25738
C         35.70695        19.19001        -0.34635
C         36.97653        18.49292        -0.20183
C         38.10041         2.03424         0.08142
C         38.12677         3.46826         0.05044
C         39.32299         1.32714         0.32740
C         39.34827         4.16799         0.25780
C         38.18624         6.32834        -0.03729
C         38.20750         7.76636        -0.02562
C         39.37932         5.60270         0.22940
C         39.42768         8.46669         0.26068
C         38.21399        10.62058         0.09600
C         38.21400        12.05088         0.11412
C         39.43426         9.89738         0.28855
C         39.43084        12.77170         0.32057
C         38.20969        14.91444         0.06370
C         38.20072        16.35811         0.05465
C         39.42666        14.20742         0.31416
C         39.40097        17.07987         0.33105
C         38.14829        19.19334         0.09451
C         39.36926        18.51047         0.33819
C         40.49882         2.00160         0.53091
C         40.54442         3.43289         0.50439
C         41.75071         4.13810         0.72148
C         40.61162         6.29003         0.47364
C         40.63178         7.73844         0.48621
C         41.77860         5.52395         0.71046
C         41.81992         8.47177         0.72423
C         40.64874        10.60757         0.52622
C         40.64771        12.05772         0.54093
C         41.82853         9.85608         0.73980
C         41.82626        12.80316         0.76754
C         40.63501        14.92727         0.55896
C         40.62471        16.38539         0.58184
C         41.81706        14.19099         0.78270
C         41.78101        17.14022         0.83863
C         40.56532        19.22684         0.60938
C         41.74529        18.54358         0.85376
O         10.67728        15.78707         2.32162
O         17.84722         3.91650        -1.37508
O         35.23764        16.67151        -1.93822
O          4.06049         8.09913        -1.89301
O         20.09417         8.11017         1.92517
O         30.76545         7.90820         1.15089
O         19.47410        13.40009        -1.50340
O         31.68314        17.74362        -1.70694
O         10.18804         3.95792         1.51123
O         29.98884        14.41130         1.29151
O         12.08473        13.15222        -0.78924
H         12.03570        12.31735        -1.30130
O         27.33951         5.57077         1.72405
H         27.67570         6.44297         2.02389
O         10.09547         5.42014        -1.81041
H          9.97475         6.28688        -2.25183
O          7.37613         3.89845        -2.27253
H          6.79991         4.59735        -2.66775
O          3.40973        12.27213         1.27376
H          4.16047        11.82148         1.71352
O         18.65738         7.88727        -1.43848
H         17.94544         7.37859        -1.88239
O         33.34661         3.48840        -2.61062
H         34.13252         2.95853        -2.86476
O          5.15308        14.24438        -2.33610
H          6.06533        13.92089        -2.49673
O         25.98166        11.73292         1.55975
H         26.15592        12.57470         2.03029
O          5.97107         6.26368        -2.35127
H          5.18115         6.81558        -2.59002
O         13.42519        10.47666         2.54956
H         14.25267        10.88145         2.88714
O         25.60095        10.94569        -1.98571
H         25.46062        10.09451        -2.44993
O         15.03290        14.17613         2.58432
H         14.16452        13.96982         3.01482
O         28.49509        14.90267        -2.07255
H         27.84393        15.55211        -2.43750
O         33.24315        20.35274         0.48487
H         33.24885        19.87633         1.34034
O         10.77667        11.83121         2.40953
H         11.39874        12.44434         2.87335
O         33.28263         6.37217        -2.59016
H         33.22755         5.42854        -2.88040
O         31.09647        16.72187         1.68948
H         30.56181        16.07986         2.21178
O         22.03416        17.23604        -1.96470
H         21.20804        17.71972        -2.17895
O         19.54118         5.41636         2.16856
H         19.68824         6.32487         2.53315
O         29.70574         8.33218        -2.32412
H         28.98064         8.83924        -2.74506
O          8.31994         7.57573         1.68900
H          8.57964         8.42011         2.11567
O          2.54289        12.75629        -2.27424
H          2.60380        11.81152        -2.52769
O         27.05474        17.28993        -2.03857
H         27.75285        17.94084        -2.26842
O         34.56455         8.18692         1.25044
H         33.66153         8.33659         1.60824
O          8.79796        10.70758        -1.78979
H          8.00343        11.13074        -2.18044
O         23.73494         7.78284         2.16266
H         23.87156         8.71388         2.44100
O         35.74825         8.04676        -2.20589
H         36.43353         7.48886        -2.62769
O         12.34918        13.92072         2.78965
H         11.89548        14.69216         3.21761
O          1.98383        14.39954         0.93973
H          1.98367        15.34539         1.19734
H          0.44932         1.63765         1.45108
H          0.39810         4.07998         1.14906
H          2.54484         0.34917         1.01993
H          0.39976         5.97336         0.95534
H          0.33158         8.37104         0.61369
H          0.20302        10.22774        -0.04594
H          0.17750        12.62663        -0.43206
H          0.30824        14.54701        -1.44377
H          0.44167        16.99608        -1.71439
H          1.63049        19.12830        -1.26828
H          4.91829         0.30902         0.43318
H          3.76202        20.35047        -0.90749
H          7.29411         0.23995         0.05147
H          6.19256        20.33593        -0.46719
H          9.76747         0.20955         0.16424
H          8.62048        20.32952        -0.05179
H         12.28765         0.20386         0.13774
H         11.06041        20.31117         0.33930
H         14.72639         0.22458         0.11584
H         13.50951        20.28994         0.44344
H         17.17679         0.20869         0.00460
H         15.96239        20.28362         0.45224
H         19.72922         0.19334        -0.07438
H         18.44900        20.27468         0.40255
H         22.17875         0.26291        -0.36602
H         20.90101        20.25037         0.47354
H         24.60995         0.30277        -0.56504
H         23.37375        20.24465         0.40203
H         27.05595         0.29923        -0.68611
H         25.77642        20.24384         0.42648
H         29.52607         0.28220        -0.75821
H         28.23177        20.27779         0.48261
H         31.99874         0.26030        -0.54932
H         30.72699        20.33464         0.08490
H         34.44387         0.25974        -0.34923
H         33.22656        19.97725        -1.53241
H         36.87893         0.25099        -0.08516
H         35.71382        20.28239        -0.20893
H         39.30200         0.22781         0.35146
H         38.13037        20.29227         0.14248
H         41.43005         1.44801         0.72081
H         42.67585         3.57437         0.91010
H         42.73680         6.02780         0.89505
H         42.76680         7.94408         0.89992
H         42.78178        10.36806         0.92734
H         42.78024        12.28815         0.94207
H         42.76391        14.71441         0.97140
H         42.73982        16.64121         1.03261
H         40.54461        20.32590         0.61976
H         42.66918        19.10174         1.06055
