         720
 CSIRO Nanostructure Databank - Neutral Graphene Oxide Data Set
C         22.93616        27.40374        -0.39687
C         22.90802        28.77990        -0.37810
C         22.91176        31.72361        -0.29904
C         22.93838        33.07380        -0.53985
C         22.97048        35.97751        -0.89903
C         22.97924        37.35234        -0.92768
C         23.04719        40.27284        -1.16912
C         22.99546        41.61318        -1.07899
C         22.96909        44.66072        -0.77779
C         23.03709        46.00444        -0.92175
C         25.27414        24.50853         0.13870
C         24.13146        25.22544        -0.10837
C         25.27305        27.35157         0.31475
C         24.12471        26.67001        -0.06395
C         25.25017        28.81282         0.38799
C         24.05391        29.54509        -0.02121
C         25.36958        31.65798        -0.24912
C         24.10910        30.96250        -0.14511
C         25.36589        33.04512        -0.60535
C         24.17060        33.77330        -0.72755
C         25.39699        35.92565        -1.02510
C         24.18087        35.22437        -0.92372
C         25.42823        37.35434        -0.91941
C         24.20225        38.07886        -0.88744
C         25.41120        40.17169        -0.42474
C         24.22406        39.50778        -0.78604
C         25.35667        41.63667        -0.11894
C         24.01929        42.39412        -0.30047
C         25.51351        44.52260        -0.91516
C         24.17252        43.81002        -0.87641
C         25.52685        46.00298        -0.90896
C         24.30183        46.70744        -0.99239
C         25.51949        48.81074        -0.87396
C         24.32662        48.11719        -1.00187
C         27.79100        23.01222         0.43033
C         27.73303        24.44335         0.52863
C         26.51075        25.13917         0.47040
C         27.77968        27.27567         0.28113
C         26.50479        26.61864         0.80122
C         27.81583        28.75252         0.05142
C         26.59839        29.58109         0.29938
C         27.88464        31.60362        -0.37995
C         26.60464        30.96326        -0.16100
C         27.93015        32.99408        -0.70958
C         26.64410        33.67200        -0.99344
C         27.93897        35.88949        -1.31000
C         26.63548        35.15951        -1.26094
C         27.93136        37.39297        -1.11327
C         26.65303        38.08756        -0.82113
C         27.94671        40.12982        -0.22771
C         26.64513        39.44737        -0.47499
C         27.96631        41.63983        -0.05077
C         26.66842        42.40591        -0.07314
C         28.00080        44.48694        -0.61484
C         26.72129        43.81005        -0.49024
C         28.02826        45.99735        -0.73267
C         26.73298        46.72007        -0.74767
C         28.00804        48.86564        -0.49423
C         26.75050        48.13146        -0.72078
C         27.96085        50.27063        -0.41206
C         30.23238        23.01391         0.61098
C         28.98169        22.33429         0.44550
C         30.22703        24.39886         0.73104
C         28.99785        25.15291         0.65152
C         30.29379        27.28222         0.37838
C         29.05361        26.55134         0.51256
C         30.28997        28.70237         0.13619
C         29.11235        29.46810         0.03485
C         30.38603        31.63713        -0.02729
C         29.09335        30.87280        -0.17603
C         30.39160        33.03519        -0.60662
C         29.15948        33.71492        -0.82395
C         30.38465        35.88276        -1.04094
C         29.19167        35.14836        -1.06997
C         30.40115        37.31061        -1.00591
C         29.21924        38.05618        -0.85534
C         30.41261        40.19921        -0.61987
C         29.21474        39.45691        -0.59647
C         30.40116        41.61917        -0.52307
C         29.22683        42.36356        -0.33276
C         30.49960        44.50849        -0.31835
C         29.26200        43.78160        -0.35284
C         30.52512        45.97192         0.00547
C         29.23090        46.71789        -0.18360
C         30.41510        48.89592         0.14887
C         29.24018        48.19891        -0.23979
C         30.22504        50.26916         0.39138
C         29.05670        50.96669         0.06593
C         32.79671        20.15734         0.77225
C         31.61483        20.79547         0.83220
C         32.75842        22.93848         0.77859
C         31.50614        22.22429         0.33144
C         32.73746        24.40372         1.02997
C         31.44671        25.20647         1.13052
C         32.79681        27.23304         0.40829
C         31.51576        26.58701         0.51431
C         32.85208        28.67423         0.11459
C         31.57262        29.35748        -0.20792
C         32.93013        31.54139        -0.60331
C         31.58243        30.82085        -0.48708
C         32.82874        33.03161        -0.33266
C         31.63516        33.70683        -0.64476
C         32.77538        35.90844        -0.22447
C         31.72157        35.16767        -1.06305
C         32.93734        37.34734        -0.65604
C         31.70913        38.03998        -1.22577
C         32.86479        40.15799        -0.73776
C         31.67912        39.50090        -0.84578
C         32.86147        41.61583        -0.47582
C         31.64248        42.37114        -0.92443
C         32.94208        44.50380        -0.46180
C         31.68606        43.80893        -0.47231
C         32.96231        45.93332        -0.11916
C         31.83062        46.71271         0.07098
C         33.03817        49.12131         0.06999
C         31.77807        48.23464         0.53504
C         33.12508        50.51655        -0.32892
C         32.15310        51.46804         0.08313
C         33.29056        53.28329        -1.00991
C         32.20340        52.80951        -0.24707
C         35.44795        18.74472        -0.06359
C         35.32732        20.04060         0.38629
C         34.03581        20.80733         0.15667
C         35.21391        22.91433         0.97328
C         34.08291        22.26774         0.58400
C         35.22894        24.40834         1.29091
C         34.03100        25.05560         0.58665
C         35.28567        27.22006         0.25859
C         33.98592        26.54589         0.60375
C         35.25636        28.65665         0.77630
C         34.00855        29.38128         0.27466
C         35.36879        31.58785         0.07580
C         33.98598        30.90097         0.32112
C         35.24771        33.04421         0.46024
C         34.03847        33.76171        -0.04391
C         35.38638        35.81717        -0.22059
C         34.07562        35.13469        -0.13798
C         35.42203        37.30169        -0.51304
C         34.11879        38.01016        -0.62798
C         35.38718        40.20877        -0.46831
C         34.17802        39.46926        -1.02284
C         35.38733        41.57391        -0.44504
C         34.14617        42.36043        -0.45914
C         35.41153        44.54565        -1.07335
C         34.13903        43.81698        -0.66652
C         35.47839        45.86726        -0.34434
C         34.31611        46.38051         0.16015
C         35.50318        48.98072        -0.39771
C         34.29488        48.54750         0.21779
C         35.55013        50.29990        -0.87223
C         34.34254        51.08189        -0.84457
C         35.65345        52.96562        -1.92778
C         34.37346        52.45497        -1.26522
C         35.73981        54.47037        -2.08629
C         37.89407        18.64652         0.33684
C         36.67629        18.04121        -0.03229
C         37.84746        20.03269         0.82458
C         36.51487        20.68504         0.98030
C         37.71482        22.94421         1.46969
C         36.44659        22.16241         1.30852
C         37.73564        24.37432         1.07397
C         36.55111        25.08217         0.90894
C         37.73676        27.24643         0.80682
C         36.54709        26.50361         0.70073
C         37.78635        28.67330         0.88627
C         36.55459        29.40607         0.41392
C         37.82741        31.56912         0.78437
C         36.48791        30.86783         0.86593
C         37.82787        33.01610         0.76397
C         36.53740        33.76363         0.70235
C         37.76890        35.90196         0.43266
C         36.59596        35.19359         0.33798
C         37.78698        37.32590         0.18791
C         36.65562        38.03443        -0.17566
C         37.77356        40.19562         0.15976
C         36.63797        39.49877        -0.17676
C         37.80295        41.69662         0.31154
C         36.67029        42.31552        -0.46299
C         37.99266        44.51920        -0.64677
C         36.70013        43.75279        -0.84529
C         37.95260        45.97723        -0.42099
C         36.72579        46.62458        -0.30229
C         38.01488        48.76513        -0.90449
C         36.66947        48.08375        -0.59442
C         38.00699        50.23782        -0.96504
C         36.83900        50.94039        -1.07228
C         38.15752        53.08062        -1.36010
C         36.82060        52.45466        -1.07393
C         38.25127        54.53608        -1.80978
C         36.88778        55.15775        -2.01287
C         40.47370        16.05740        -0.52873
C         39.26840        16.70176        -0.44275
C         40.43607        18.74927         0.38122
C         39.14313        17.98617         0.16692
C         40.28925        19.92497         1.32393
C         38.99578        20.71199         1.13533
C         40.27594        22.84906         0.98549
C         38.99390        22.17338         1.43713
C         40.33564        24.35935         1.07246
C         39.03049        25.01407         0.79570
C         40.25852        27.27608         0.94897
C         39.01570        26.54563         0.70563
C         40.23688        28.65462         1.12349
C         38.99301        29.38011         1.03961
C         40.25253        31.58844         1.20113
C         38.98452        30.84300         1.00724
C         40.27841        33.05437         0.93633
C         39.01071        33.73295         0.82634
C         40.29666        35.89446         0.81387
C         38.97191        35.22405         1.06890
C         40.30729        37.33171         0.36949
C         39.00341        38.05380         0.70270
C         40.15773        40.27396         1.03748
C         39.10419        39.50770         0.22127
C         40.28904        41.68984         0.53007
C         39.16307        42.33299         0.08605
C         40.41368        44.53262         0.23727
C         39.24635        43.76823        -0.25458
C         40.43616        45.93883         0.06956
C         39.22929        46.66807        -0.34728
C         40.45203        48.82024        -0.25577
C         39.25931        48.05096        -0.53318
C         40.44992        50.18881        -0.37947
C         39.34545        50.88955        -1.14938
C         40.55441        53.11745        -0.87904
C         39.27908        52.39409        -1.02654
C         40.48261        54.59349        -0.63137
C         39.14231        55.31241        -0.81043
C         40.53677        57.42929        -1.07220
C         39.35400        56.79348        -1.05707
C         42.97683        15.96523        -0.17532
C         41.66695        16.53325         0.19451
C         42.93736        18.60989         1.17245
C         41.62655        17.89386         0.83111
C         42.92670        20.12155         1.31002
C         41.56257        20.76069         1.30076
C         43.16842        23.21694         1.19486
C         41.40015        22.06608         1.61232
C         42.81492        24.42925         0.66116
C         41.51151        25.08647         0.86473
C         42.63307        27.28173         0.40766
C         41.49288        26.54294         0.76963
C         42.66925        28.70600         0.54440
C         41.58099        29.31795         1.38959
C         42.78473        31.55445         0.84985
C         41.55856        30.83376         1.28045
C         42.75332        33.00929         1.17168
C         41.47260        33.75000         1.04177
C         42.74822        35.94222         0.84644
C         41.50048        35.20578         0.89385
C         42.74216        37.38703         0.95093
C         41.49374        38.12056         0.88220
C         42.67227        40.25262         1.22335
C         41.46594        39.50147         1.01657
C         42.68005        41.64802         1.17439
C         41.52762        42.38995         0.76971
C         42.76898        44.53033         0.99474
C         41.55550        43.81433         0.68287
C         42.77758        45.96247         0.86068
C         41.63636        46.64332         0.37468
C         42.77641        48.83939         0.76475
C         41.76957        48.08734        -0.05483
C         42.76105        50.30198         0.81072
C         41.58377        50.98648         0.14010
C         42.90241        53.18284         0.14183
C         41.75423        52.37777        -0.37979
C         43.05736        54.54453        -0.47318
C         41.77588        55.32439        -0.56497
C         43.02307        57.44197        -0.39119
C         41.88167        56.73835        -1.10243
C         44.12744        16.59229         0.09345
C         45.38456        18.69794         0.43774
C         44.25485        17.82317         0.97032
C         45.18202        20.12234         0.11197
C         44.11078        20.91691         0.78285
C         45.24374        23.01842        -0.03079
C         44.17260        22.31740         0.64133
C         45.16469        24.44354        -0.26834
C         43.83117        25.09126        -0.17498
C         44.96148        27.36889        -0.57858
C         43.76822        26.59081        -0.21981
C         44.74841        28.72728        -0.69106
C         43.73503        29.45967         0.04002
C         45.16147        31.71500         0.07549
C         43.87013        30.91394         0.29085
C         45.23913        33.14865         0.51602
C         44.01836        33.78525         1.11583
C         45.20645        35.92768         1.13960
C         44.00311        35.26369         1.02204
C         45.19902        37.38270         0.75371
C         43.93130        38.07926         1.13500
C         45.20251        40.27373         1.27331
C         43.93377        39.51140         1.60364
C         45.20278        41.65190         1.36659
C         43.90877        42.37176         1.68027
C         45.17850        44.53597         1.49891
C         43.94512        43.83990         1.33473
C         45.14254        45.97737         1.56867
C         43.96817        46.66617         1.27805
C         45.14028        48.95413         1.74092
C         43.87066        48.13941         1.40172
C         45.21471        50.36173         1.28467
C         44.05438        51.02436         0.94192
C         45.38606        53.20027         0.73984
C         44.08584        52.49113         0.73925
C         45.46095        54.57471         0.43299
C         44.30221        55.31066        -0.16914
C         44.14275        56.78468        -0.02957
C         47.74511        18.78955        -0.26688
C         46.61026        18.10202         0.21658
C         47.70220        20.15124        -0.59344
C         46.39554        20.85266        -0.49307
C         47.55536        23.03190        -0.80981
C         46.41795        22.32656        -0.43878
C         47.58002        24.48248        -0.55862
C         46.28492        25.19706        -0.59290
C         47.58064        27.46830        -0.73341
C         46.24447        26.66964        -0.85816
C         47.62324        28.89696        -0.32816
C         46.64212        29.80403        -0.64222
C         47.55166        31.55542         0.80680
C         46.51663        31.06316         0.04666
C         47.29493        32.72074         1.66855
C         46.48170        33.72653         1.14133
C         47.71071        35.99334         0.96343
C         46.49247        35.21988         1.55335
C         47.66252        37.42733         0.84218
C         46.45685        38.14695         1.02270
C         47.67701        40.28514         1.07081
C         46.43890        39.55080         1.10486
C         47.67570        41.71385         1.25876
C         46.43539        42.40419         1.39027
C         47.68915        44.51387         1.95881
C         46.40488        43.81812         1.56921
C         47.68605        46.01107         1.77545
C         46.39373        46.68747         1.96126
C         47.69349        48.90612         1.82342
C         46.41114        48.20767         1.99533
C         47.67907        50.33062         1.64246
C         46.48887        51.04830         1.35880
C         47.76317        53.17833         1.33410
C         46.54335        52.47316         1.13685
C         47.81357        54.55971         1.04721
C         46.69847        55.23470         0.57537
C         50.11058        20.23573        -1.29644
C         48.85978        20.87544        -0.98217
C         50.11420        23.12083        -1.23343
C         48.78847        22.33365        -1.17504
C         50.14930        24.55792        -0.92181
C         48.88940        25.22136        -0.53471
C         50.14076        27.45536        -0.41400
C         48.84512        26.72020        -0.41116
C         50.18104        28.96082        -0.50165
C         48.91862        29.62791        -0.08976
C         50.19043        31.72705         0.47414
C         48.93605        30.87628         0.80220
C         50.22399        33.13762         0.55638
C         49.37614        34.09314         1.35316
C         50.06498        36.09244         0.20239
C         48.93776        35.38079         0.73606
C         50.03363        37.48599         0.14089
C         48.86133        38.17607         0.60113
C         50.20659        40.27001         0.88337
C         48.86651        39.58278         0.79335
C         50.13813        41.78494         0.90326
C         48.91827        42.45333         1.21380
C         50.13210        44.59977         1.35686
C         48.93360        43.85354         1.43135
C         50.13885        46.02202         1.60936
C         48.88070        46.72310         1.80580
C         50.15006        48.87452         2.08286
C         48.90256        48.18059         1.90138
C         50.06476        50.31829         2.29587
C         48.90156        51.04200         1.88501
C         50.01268        53.17479         2.38265
C         48.91427        52.46764         1.85132
C         51.28402        20.91528        -1.40983
C         52.58198        23.13202        -1.62419
C         51.41270        22.35625        -0.98484
C         52.62153        24.57316        -1.11954
C         51.38444        25.23493        -0.91095
C         52.67502        27.44898        -0.55429
C         51.39292        26.71603        -0.76501
C         52.62002        28.78218         0.22488
C         51.53025        29.66684        -0.39559
C         52.64303        31.77788         0.17490
C         51.41528        31.06599         0.18728
C         52.62422        33.17770         0.12569
C         51.38995        33.85043         0.19242
C         52.54268        36.04273        -0.49560
C         51.28095        35.30188        -0.15103
C         52.49478        37.54964        -0.58570
C         51.18838        38.27323        -0.35920
C         52.53338        40.43960         0.00501
C         51.16483        39.79668        -0.20876
C         52.53913        41.77557         0.36086
C         51.33104        42.49942         0.74558
C         52.56163        44.66137         1.00981
C         51.36059        43.92346         1.01747
C         52.57569        46.07143         1.24720
C         51.34470        46.76018         1.57448
C         52.67958        48.81903         1.93259
C         51.38060        48.16308         1.92715
C         52.98306        49.99919         2.65561
C         51.05477        51.08276         2.94792
C         51.04726        52.48208         2.99357
C         55.06109        23.11330        -1.37161
C         53.90100        22.42415        -1.47809
C         55.08640        24.53870        -1.17325
C         53.88069        25.25179        -0.99278
C         55.10043        27.39494        -0.69152
C         53.93738        26.67759        -0.65685
C         55.17763        28.83664        -0.31063
C         53.96561        29.52718         0.23541
C         55.29512        31.78429         0.16588
C         53.93532        31.04085         0.54218
C         55.04001        33.13966        -0.52175
C         53.92836        33.93863         0.19441
C         55.00750        36.06451        -0.41803
C         53.85349        35.36714        -0.30432
C         54.99089        37.54671        -0.31458
C         53.74381        38.30744        -0.39530
C         55.04033        40.38201        -0.23034
C         53.76282        39.69172        -0.23705
C         55.07909        41.76282         0.27027
C         53.80304        42.53563         0.27769
C         55.13362        44.63614         0.95533
C         53.82499        43.98385         0.62665
C         55.08208        46.13062         0.99898
C         53.76728        46.81246         1.05066
C         54.99467        48.98069         1.03535
C         53.79992        48.21816         1.27436
C         55.15494        50.22837         1.63093
C         54.17246        50.70799         2.51009
C         57.56566        24.68237        -1.89351
C         56.38926        25.23471        -1.16645
C         57.39800        27.52290        -1.75789
C         56.38081        26.71797        -0.95406
C         57.45602        28.99011        -1.37751
C         56.34783        29.63136        -0.78093
C         57.47728        31.78202        -1.05389
C         56.34606        31.03189        -0.64153
C         57.49838        33.23916        -0.86029
C         56.34453        33.91018        -0.58006
C         57.37682        36.05746        -1.23302
C         56.37141        35.39649        -0.26007
C         57.38438        37.59203        -1.21594
C         56.28608        38.30551        -0.50853
C         57.49335        40.49816        -0.73332
C         56.24231        39.77238        -0.55448
C         57.55307        41.88103        -0.42721
C         56.39138        42.48986         0.25162
C         57.63900        44.74499         0.16705
C         56.42786        43.95346         0.56929
C         57.56745        46.24561         0.22947
C         56.21725        46.88249         0.37836
C         57.30745        49.13447        -0.17412
C         56.10222        48.37114         0.25390
C         58.68246        25.40398        -2.08967
C         59.81100        27.66263        -2.38034
C         58.82453        26.83112        -1.60444
C         59.69324        29.00294        -2.42894
C         58.58390        29.72360        -1.79613
C         59.82781        31.88951        -1.84357
C         58.61299        31.12796        -1.59623
C         59.94785        33.19164        -1.50774
C         58.80833        33.95541        -0.97252
C         59.89821        36.26091        -1.66418
C         58.77928        35.46757        -1.08932
C         59.83693        37.59257        -1.85527
C         58.60598        38.38148        -1.58143
C         59.81292        40.59365        -1.46226
C         58.65543        39.83162        -1.22534
C         59.82384        41.97276        -1.29094
C         58.69639        42.66564        -0.77946
C         59.66354        44.94541        -1.25991
C         58.69868        44.10465        -0.63959
C         59.66762        46.32177        -1.16814
C         58.65845        47.06238        -0.39270
C         58.42406        48.51600        -0.60431
O         41.36841        16.73703         1.64257
O         38.97009        44.13826        -1.66241
O         27.66038        27.81823        -1.08405
O         42.42187        22.75066         2.27293
O         44.14573        48.69684         2.75377
O         49.40163        22.78578        -2.44546
O         39.06064        25.70317        -0.50319
O         44.01194        54.75934        -1.54124
O         27.96256        36.78948        -2.46566
O         41.02661        55.06126         0.66342
O         52.03568        27.42347        -1.87705
O         45.08676        32.83327        -0.90315
O         56.80047        25.84405         0.14453
O         41.59677        52.61212        -1.81449
O         49.49350        27.09823         0.85102
O         37.20997        48.19862        -1.97101
O         32.76669        23.46634         2.15250
O         24.87943        43.90331        -2.14092
O         29.62589        46.25043         1.14998
O         48.34433        24.67300         0.74257
O         55.88527        37.88336         0.82032
O         28.22271        45.23317        -1.94626
O         52.08532        50.43662         3.64151
O         51.64722        37.96044        -1.71639
O         31.40373        29.91604        -1.60721
O         45.32266        20.35009        -1.34602
O         41.63900        50.92259         1.60509
O         33.37059        42.01636         0.81840
O         26.54644        34.20845        -2.37531
O         51.72703        35.44347        -1.55445
O         57.52399        38.12727        -2.57706
O         45.59620        29.48215        -1.50035
O         35.60602        33.43349         1.82848
O         59.12237        34.83184         0.16992
O         43.03374        19.24593         2.49527
O         55.90879        41.80674         1.47592
O         55.68458        47.47901        -0.85439
O         31.20933        51.03484         1.02599
O         34.41502        47.43890         1.05721
O         28.05889        40.75233         1.10317
O         58.62630        46.77613         1.07497
O         25.90883        42.06717         1.16985
O         43.06461        53.19941         1.57865
O         36.92160        42.71389        -1.85492
O         36.24682        21.17226         2.36118
O         25.94280        29.35575         1.58790
O         43.33995        25.73238        -1.38479
O         55.26229        45.33508         2.22055
O         49.50650        34.08107         2.57421
O         40.93649        31.35989         2.50242
O         35.60271        36.33292        -1.60043
O         49.42478        29.72426        -1.49407
O         38.45999        22.62872         2.71079
O         57.50022        44.18542         1.52789
O         54.91842        28.91801         1.17672
O         43.55896        33.26967         2.40093
O         47.01321        27.11835        -2.02340
O         46.33175        47.42236         3.23522
O         57.03669        27.43023        -3.08693
O         53.80639        43.55879        -0.79612
O         38.73753        35.36317         2.53650
H         39.46925        34.89441         2.99530
O         50.80100        39.85323         2.14762
H         50.22007        40.15598         2.87699
O         52.24406        28.50279         1.58340
H         53.06236        28.24837         2.06601
O         40.83318        19.27399        -0.91798
H         40.28778        20.06653        -1.11584
O         43.79377        42.30434         3.15946
H         42.97032        42.77372         3.41485
O         54.26220        34.07553         1.60284
H         54.32898        33.16761         1.98999
O         34.20014        24.71451        -0.84157
H         33.38843        24.98963        -1.32004
O         46.61158        35.34571         2.98562
H         47.37803        34.79910         3.27222
O         37.51898        41.97671         1.71997
H         38.20932        41.49146         2.24725
O         36.54824        52.86661         0.30286
H         37.04842        53.69994         0.48273
O         54.59323        32.85032        -1.86130
H         54.64663        33.67007        -2.39601
O         59.21552        26.85096        -0.23401
H         58.56366        26.30006         0.26863
O         36.16207        30.90308         2.28390
H         36.04483        31.86562         2.51689
O         33.34465        31.44746        -1.97733
H         32.79906        30.73681        -2.39484
O         49.11899        30.41637         2.17609
H         49.98718        29.96078         2.24901
O         33.86618        20.78249        -1.28944
H         33.05050        21.30649        -1.49945
O         51.66856        22.36791         0.44337
H         50.97266        21.84485         0.89312
O         33.55344        31.24761         1.65593
H         34.13913        30.79449         2.30232
O         45.15545        37.37791        -0.74523
H         44.48473        36.71557        -1.02018
O         53.83419        31.11305         1.99437
H         54.44226        30.42901         2.35792
O         51.99160        29.92353        -1.74228
H         51.20642        30.16830        -2.28246
O         47.77518        32.69388         2.92163
H         48.39224        31.92789         3.02322
O         31.56787        22.20191        -1.13980
H         30.74240        21.78328        -1.46538
O         44.67076        17.31152         2.26077
H         44.27387        17.90135         2.94348
O         42.34399        48.02021        -1.42677
H         41.65308        47.64277        -2.01450
O         31.24828        25.48904         2.55269
H         31.60921        24.71628         3.04644
O         30.59779        31.79478         1.41539
H         29.91728        32.41000         1.76016
O         23.43378        42.56962         1.01657
H         24.17719        42.53468         1.66499
O         42.24474        56.63423        -2.50367
H         43.03995        56.04895        -2.55557
O         39.74451        40.44914         2.42190
H         39.50510        39.55185         2.77022
O         32.22949        35.94491         1.12855
H         32.90903        36.31154         1.73210
O         56.80151        35.53978         1.09870
H         56.12201        35.10111         1.66128
O         35.31102        44.80380        -2.49534
H         35.73078        44.04252        -2.95659
O         39.59698        39.57992        -1.13673
H         39.01423        39.04370        -1.71513
O         47.76835        44.34935         3.43118
H         47.08002        44.92530         3.83054
O         56.90518        35.66115        -2.54661
H         57.17391        36.37343        -3.17558
O         32.19288        35.19310        -2.44228
H         31.66160        34.55574        -2.96492
O         35.72363        31.69771        -1.30423
H         35.91718        30.79823        -1.66311
O         35.77945        52.37122        -3.24204
H         34.97764        52.59095        -3.75950
O         38.94103        54.55681        -3.07817
H         38.45167        53.98151        -3.70299
O         43.90990        39.44751         3.07449
H         43.89924        40.38568         3.39416
O         41.93902        28.99489         2.76501
H         41.49901        29.66991         3.33200
O         36.73548        29.39751        -1.02755
H         36.50094        28.49476        -1.36518
O         31.81760        48.19357         1.96562
H         31.71849        49.11193         2.29566
O         38.85830        38.05858         2.15004
H         38.75925        37.11777         2.46356
O         40.20179        19.37425         2.65807
H         40.12886        20.11007         3.30116
O         40.42740        37.25050        -1.08606
H         41.29400        36.83983        -1.28922
O         35.07883        24.60409         2.70781
H         35.63879        23.95163         3.17787
O         35.15842        28.49545         2.20647
H         35.48418        29.31746         2.64429
O         26.51983        26.72236         2.25590
H         26.33554        27.66776         2.47606
O         35.33813        27.20730        -1.20919
H         35.26915        26.25749        -1.47563
O         40.34280        22.53562        -0.45383
H         40.90146        23.21144        -0.89627
O         52.29720        23.19995        -3.04949
H         52.96091        23.78545        -3.47055
O         38.43033        55.19299         0.45065
H         39.08205        55.39012         1.16289
O         31.68308        42.38019        -2.38709
H         30.88944        42.85506        -2.71284
O         50.65749        40.33022        -1.45153
H         51.03008        39.77501        -2.17476
O         34.34958        39.50021        -2.47095
H         33.57611        39.01324        -2.85499
O         31.93296        37.99897        -2.68113
H         32.05668        37.04281        -2.91589
O         39.71372        50.67893        -2.55607
H         40.51454        51.23290        -2.72214
O         55.97381        32.07340         1.41342
H         56.46099        31.27064         1.69377
H         22.03669        26.84242        -0.68673
H         21.98472        29.29606        -0.67473
H         21.93989        31.22511        -0.18406
H         21.98339        33.60858        -0.61582
H         22.00156        35.46383        -0.86149
H         22.02282        37.89124        -0.90354
H         22.22704        39.73753        -1.66797
H         22.11912        42.15738        -1.45973
H         22.00673        44.17389        -0.56445
H         22.12020        46.61062        -0.87466
H         25.23948        23.41621         0.02122
H         23.20439        24.70583        -0.38888
H         25.47953        49.90683        -0.87869
H         23.38049        48.67037        -1.08688
H         26.85997        22.43612         0.34622
H         27.04529        50.82462        -0.64882
H         28.98092        21.23803         0.35227
H         29.01294        52.05024         0.23285
H         32.87661        19.11933         1.13143
H         30.73307        20.29286         1.25915
H         33.30609        54.34177        -1.30081
H         31.43470        53.49969         0.12237
H         34.56920        18.24028        -0.49055
H         34.82104        55.02253        -2.34234
H         36.67486        17.00390        -0.39276
H         36.87192        56.24291        -2.20281
H         40.54889        15.10589        -1.07633
H         38.38474        16.22079        -0.88691
H         40.54747        58.52478        -1.19122
H         38.43549        57.40127        -1.09530
H         42.97900        15.04232        -0.77602
H         42.96214        58.53101        -0.24151
H         45.06898        16.13481        -0.24373
H         44.96048        57.34129         0.45328
H         48.69253        18.23883        -0.34088
H         46.73684        17.04343         0.48349
H         48.75589        55.11186         1.15882
H         46.78271        56.29854         0.31493
H         50.10900        19.15128        -1.48250
H         50.01546        54.27193         2.39837
H         52.19097        20.35988        -1.68793
H         51.85737        53.01106         3.51100
H         56.01538        22.56705        -1.35591
H         53.92911        21.33024        -1.57968
H         56.08165        50.79896         1.48344
H         54.33930        51.62013         3.09620
H         57.50399        23.65597        -2.28547
H         57.21617        50.22632        -0.27631
H         59.53070        24.95473        -2.63060
H         60.65162        27.15708        -2.88064
H         60.44513        29.58304        -2.98305
H         60.70581        31.36372        -2.24219
H         60.91419        33.70210        -1.62500
H         60.85109        35.74337        -1.85309
H         60.72428        38.12053        -2.23502
H         60.72310        40.10243        -1.83246
H         60.74275        42.52555        -1.52681
H         60.44261        44.47612        -1.87820
H         60.41857        46.89662        -1.72914
H         59.25196        49.10689        -1.02533
