         262
 CSIRO Nanostructure Databank - Neutral Graphene Oxide Data Set
C        -10.62407         0.64380         1.86247
C         -9.54277         1.41371         1.23898
C         -8.64391         0.77801         0.43202
C         -7.59230         1.48911        -0.38831
C         -6.22918         0.79430        -0.08684
C         -5.07993         1.51748        -0.80645
C         -3.80985         0.80488        -1.31299
C         -2.50902         1.41058        -0.72889
C         -1.23996         0.71919        -1.06811
C          0.00841         1.55233        -1.31153
C          1.25935         0.71639        -1.07349
C          2.56111         1.42844        -1.06723
C          3.80969         0.65872        -1.16162
C          5.08444         1.41089        -1.23810
C          6.38667         0.70881        -0.98150
C          7.71678         1.48910        -0.92930
C          8.80961         0.67081        -0.29860
C         10.14921         1.69318         1.04184
C         10.95771         0.76370         1.79527
C         -9.49333         2.86194         1.42409
C         -8.58142         3.63642         0.79694
C         -7.56047         3.07218        -0.18221
C         -6.17366         3.57467         0.28869
C         -5.01110         2.96304        -0.43661
C         -3.69510         3.62677        -0.18332
C         -2.43630         2.86602        -0.35607
C         -1.16202         3.61352        -0.52913
C          0.01963         2.91359        -0.64799
C          1.23972         3.58867        -1.23054
C          2.58231         2.90326        -1.08090
C          3.75638         3.59265        -0.99670
C          5.07666         2.91594        -1.19727
C          6.37403         3.63742        -0.82938
C          7.53056         2.86971        -0.30135
C          8.39133         3.47620         0.66052
C          9.39627         2.75628         1.47310
C         -8.63098         5.15062         0.82427
C         -7.26485         5.82858         0.88832
C         -6.03403         5.00955         0.70992
C         -4.75881         5.72787         0.43018
C         -3.65755         5.10466        -0.09973
C         -2.41861         5.78273        -0.46464
C         -1.25073         5.06441        -0.64484
C         -0.04600         5.80396        -1.20855
C          1.27462         5.06654        -0.97330
C          2.41507         5.69907        -0.55110
C          3.69035         4.91985        -0.26273
C          4.95177         5.77550        -0.35277
C          6.28279         5.11788        -0.51879
C          7.56748         5.77362        -0.02630
C          8.28797         4.84739         0.92276
C         -7.17497         7.15480         1.11553
C         -5.86023         7.83987         1.41517
C         -4.67678         7.17097         0.72542
C         -3.60574         7.94501         0.01851
C         -2.57229         7.26032        -0.88164
C         -1.20158         8.11694        -0.92469
C         -0.01846         7.19919        -0.56045
C          1.32767         7.83059        -0.80193
C          2.46007         7.16204        -0.43138
C          3.60331         7.87013         0.22736
C          4.88525         7.09900         0.35562
C          6.16324         7.79290         0.65570
C          7.35992         7.15656         0.55084
C         -5.88812         9.33517         1.18764
C         -4.91599        10.03694         0.59312
C         -3.77090         9.43903        -0.19049
C         -2.43134        10.03288         0.18155
C         -1.25345         9.39796        -0.06170
C         -0.05942         9.98016         0.57179
C          1.21580         9.82569         0.12262
C          2.49702        10.13415         0.73307
C          3.60589         9.32163         0.61881
C          4.86416         9.83463         1.13551
C          6.04546         9.15883         1.13055
C        -10.64427        -0.70311         1.83053
C         -9.45643        -1.45518         1.28262
C         -8.78856        -0.69362         0.11707
C         -7.45764        -1.38178        -0.15739
C         -6.29320        -0.70910        -0.33621
C         -4.98691        -1.42410        -0.48557
C         -3.78428        -0.69504        -1.01562
C         -2.59679        -1.44096        -1.59466
C         -1.27713        -0.71379        -1.56373
C         -0.02898        -1.48864        -1.13933
C          1.25888        -0.73900        -1.47846
C          2.57396        -1.47600        -1.50179
C          3.81745        -0.71114        -1.19276
C          4.99567        -1.38260        -0.56617
C          6.24468        -0.60834        -0.27727
C          7.45353        -1.30753         0.29016
C          8.75037        -0.60296         0.23029
C          9.86970        -1.28910         0.84670
C         10.91624        -0.59620         1.53281
C         -9.71057        -2.88412         0.89159
C         -8.72391        -3.58992         0.22984
C         -7.54524        -2.86054        -0.31181
C         -6.29282        -3.64854        -0.52315
C         -4.94949        -2.95567        -0.35282
C         -3.91537        -3.68566        -1.22278
C         -2.68528        -2.98147        -1.82740
C         -1.32382        -3.70562        -1.54913
C         -0.01941        -2.96243        -1.51661
C          1.26612        -3.70381        -1.19978
C          2.56068        -2.96814        -1.26431
C          3.80456        -3.62584        -0.73159
C          5.07286        -2.87112        -0.51928
C          6.20721        -3.57914         0.16726
C          7.41779        -2.79921         0.54283
C          8.71948        -3.49267         0.63539
C          9.84163        -2.73472         0.88649
C         -8.73746        -5.01367         0.15763
C         -7.55144        -5.78651         0.00859
C         -6.28085        -5.09930        -0.19384
C         -5.08862        -5.78143        -0.26314
C         -3.92547        -5.17631        -0.98610
C         -2.61570        -5.92549        -0.94958
C         -1.32713        -5.15140        -1.07568
C         -0.13107        -5.68136        -0.30868
C          1.13980        -4.80939        -0.17714
C          2.40357        -5.63146         0.11965
C          3.72724        -4.86434         0.15560
C          4.97618        -5.72859        -0.11971
C          6.19127        -4.92834         0.33052
C          7.36841        -5.62327         0.98243
C          8.70300        -5.00592         0.47627
C         -7.58847        -7.19230         0.01197
C         -6.37347        -7.96946         0.20915
C         -5.04041        -7.19749         0.10006
C         -3.79360        -7.95864        -0.11890
C         -2.62677        -7.27163        -0.31747
C         -1.39018        -7.96637         0.17113
C         -0.10803        -7.14922         0.02618
C          1.19128        -7.90110        -0.26539
C          2.41553        -7.12517         0.19954
C          3.71827        -7.83620         0.25740
C          4.89068        -7.15001         0.39027
C          6.15121        -7.83767         0.66194
C          7.31260        -7.13591         0.83594
C         -6.26964        -9.42823        -0.00880
C         -5.07667       -10.07935        -0.05051
C         -3.78242        -9.41170        -0.02317
C         -2.58708       -10.11577        -0.13189
C         -1.30855        -9.44832        -0.09732
C         -0.09412       -10.07083         0.11618
C          1.17142        -9.35440         0.18647
C          2.36025        -9.97490         0.45247
C          3.68499        -9.33302         0.08904
C          4.92186        -9.97835         0.65918
C          6.06877        -9.28929         0.84265
O         -5.65375         7.67380         2.84737
H         -4.68620         7.76605         3.00111
O         10.03456         1.32575        -0.32728
O          3.94870         7.10006         1.48160
O         -3.94727        -0.87484         0.42935
O          9.76021        -5.63395         1.19769
H         10.61643        -5.29439         0.86751
O          3.62119         4.49425         1.13330
H          3.57817         5.31931         1.68008
O          8.42743         5.93974        -1.19140
H          7.84004         6.14741        -1.95131
O          1.26818        -7.94024        -1.71621
H          2.08139        -8.44958        -1.95134
O          7.20573        -1.83955         1.62955
O         -5.98384         0.95181         1.32951
H         -5.13128         0.50702         1.54088
O         -1.79171        -6.01784        -2.16131
O          4.80995        -3.54000        -1.79037
O         -0.52041        -3.45166        -2.76642
O          1.39166         9.17310        -1.12027
O          5.85784         0.77617        -2.33259
O          2.21832        -6.32485         1.41414
O         -3.09361         7.21325        -2.21676
O         -0.09580        -1.54517         0.30755
H         -0.18080        -0.64055         0.68305
O          5.97672         3.42727        -2.23436
O         -3.41792         7.56807         1.40619
O         -9.45041         5.62525         1.89331
H         -8.96240         5.49678         2.73256
O         -1.96478        -0.87710        -2.80379
O         -4.57848        -3.25004         1.01869
H         -4.05081        -2.48958         1.35945
O          1.89786        -1.04319        -2.73411
O          0.90132         3.30311        -2.69796
O         -3.02522         3.03415         0.98790
O          5.18795        -0.68664         0.72612
O         -5.42305         2.56488        -1.77540
O         -5.61855        -7.50964         1.39548
O          8.16659         1.71325        -2.28566
H          7.42659         2.16824        -2.75742
O          3.76111        -9.51433        -1.38953
H          3.80082       -10.47934        -1.56403
O          2.09010        -3.83230        -2.36998
O         -1.64008        -8.02917         1.63321
H         -0.79142        -8.24801         2.07412
O         -7.89753         1.24341        -1.76967
H         -7.97441         2.16902        -2.15743
O         -7.81248         3.69330        -1.40765
O         -5.95188         3.87426         1.67284
O          7.30548        -5.36938         2.40623
H          8.19182        -5.58371         2.76954
O         -7.11773        -3.29811        -1.65724
O          0.07579         2.02540        -2.72317
O         -1.74769         0.69506         0.30542
O         -8.45944        -1.51465         2.35249
H         -8.20254        -0.58975         2.56199
O          5.65211         5.86088        -1.62209
O         -0.28295        -6.14926         1.07558
O          3.83706        -4.32606         1.48953
H          3.46881        -4.99419         2.11161
O         -4.43993        -4.60209        -2.22162
O         -0.92539         8.46915        -2.32075
H         -2.32138         7.15427        -2.82929
O         -3.72838         0.98746        -2.72821
H         -4.35995         1.70198        -2.98257
O          0.93524        -4.01194         1.01664
H          0.78889        -4.64339         1.75866
O         -0.23785         5.93778        -2.63389
H         -0.01376         5.06909        -3.04529
O          1.84613         0.98151         0.22033
O         -2.92623        -3.11248        -3.23296
H         -2.11916        -2.80672        -3.70554
O         -9.60823        -0.81875        -1.06089
H         -9.23340        -0.17635        -1.71431
O         -0.09848         7.01098         0.87322
H          0.54546         6.32247         1.14439
O          5.06015        -5.95109        -1.55225
H          5.74549        -6.62972        -1.72273
O         -4.09248         9.66737        -1.59259
H         -4.33203        10.61178        -1.69743
O         -1.62579         9.68635        -2.66981
H         -2.58928         9.44678        -2.53675
H         11.62470        -1.23423         2.08569
H         11.59983         1.13134         2.60999
H          9.55822         3.13643         2.49330
H          8.94126         5.29166         1.68890
H          8.27811         7.71086         0.80157
H          6.95763         9.65721         1.48998
H          4.85149        10.86948         1.51048
H          2.61281        11.09054         1.26947
H         -0.22823        10.55119         1.49727
H         -2.42275        10.95542         0.78420
H         -4.99035        11.13728         0.55734
H         -6.71309         9.87519         1.67892
H         -8.09719         7.73794         1.26414
H         -9.12651         5.47076        -0.13299
H        -10.24877         3.33076         2.07431
H        -11.44395         1.20416         2.33661
H        -11.46186        -1.26745         2.30402
H        -10.60199        -3.40851         1.27257
H         -9.66903        -5.53845         0.42295
H         -8.55101        -7.71301        -0.10512
H         -7.20417        -9.99894        -0.12045
H         -5.07380       -11.17409        -0.16705
H         -2.61093       -11.21375        -0.20906
H         -0.05809       -11.16769         0.21481
H          2.36428       -11.04943         0.70022
H          4.90248       -11.06603         0.83338
H          6.97258        -9.81173         1.19305
H          8.23185        -7.68510         1.09676
H          8.81354        -5.23889        -0.62834
H         10.79247        -3.24238         1.11990
