         349
 CSIRO Nanostructure Databank - Neutral Graphene Oxide Data Set
C          2.76570         5.16827         5.01395
C          1.74667         6.01932         5.35616
C          2.25491         7.48524         3.46355
C          1.50130         7.18679         4.58632
C          1.99840         8.68243         2.66544
C          1.14012         9.71010         3.11639
C          1.44023        10.98072         1.06016
C          0.93585        10.86778         2.36818
C          1.44322        12.35627         0.38464
C          0.05100        12.90896         0.12153
C          1.05503        14.80047        -1.10745
C         -0.11852        14.04174        -0.57879
C          1.08906        16.29199        -1.04141
C         -0.11082        17.01987        -0.96453
C          1.10944        19.12951        -1.10386
C         -0.09949        18.40550        -0.99581
C          1.11056        20.57944        -1.13977
C         -0.09829        21.32678        -1.03756
C          1.04031        23.49293        -1.08193
C         -0.14148        22.70940        -1.01188
C          1.06431        24.89854        -1.02932
C         -0.15084        25.69901        -1.04379
C          1.18360        27.75990        -1.43755
C         -0.12297        27.04540        -1.18665
C          1.18276        29.23210        -1.11480
C          4.61989         4.56208         3.53884
C          3.59236         5.43847         3.87549
C          4.10315         6.85904         1.91519
C          3.32536         6.60323         3.05073
C          3.65999         7.85011         0.83948
C          2.58462         8.80242         1.38603
C          3.73248        10.56295        -0.67168
C          2.12571         9.84945         0.57284
C          3.64011        11.90260        -0.82612
C          2.25687        12.51364        -0.95009
C          3.62329        14.75120        -1.18963
C          2.32486        14.02607        -1.23548
C          3.58542        16.23481        -1.04922
C          2.31242        16.98801        -1.14434
C          3.60007        19.13672        -1.28250
C          2.34017        18.40996        -1.16040
C          3.57148        20.58856        -1.35578
C          2.34430        21.27349        -1.26954
C          3.59322        23.49290        -1.03667
C          2.31008        22.75801        -1.30254
C          3.54943        24.89565        -0.56892
C          2.30729        25.61869        -0.80318
C          3.41725        27.73683        -0.17322
C          2.30529        27.00634        -0.77008
C          3.51812        29.19304        -0.35171
C          2.29192        29.88883        -0.71144
C          6.61869         4.03573         2.24706
C          5.51312         4.86007         2.48038
C          6.22899         6.43107         0.73156
C          5.28636         6.06397         1.68219
C          6.08607         7.67407        -0.10798
C          4.89716         8.55633         0.22576
C          6.17845        10.55581        -0.55513
C          4.93093         9.82277        -0.32286
C          6.14198        11.89985        -0.81458
C          4.87740        12.70750        -0.57585
C          6.05045        14.81399        -1.68165
C          4.82012        14.10187        -1.15171
C          6.15680        16.28234        -1.32523
C          4.88347        17.00709        -1.08713
C          6.10366        19.15540        -1.66971
C          4.81588        18.45594        -1.31731
C          6.03687        20.61708        -1.32441
C          4.84207        21.30463        -1.29992
C          6.00449        23.42004        -0.68975
C          4.85713        22.73218        -0.94103
C          5.99528        24.74946         0.02164
C          4.70555        25.52237        -0.17456
C          5.96208        27.73019         0.19526
C          4.70533        26.95430         0.16491
C          5.93683        29.10246         0.16114
C          4.71002        29.82590        -0.09371
C          8.80708         3.67399         1.18992
C          7.62128         4.38374         1.30784
C          8.63739         6.20040        -0.19121
C          7.41116         5.59312         0.48508
C          8.59272         7.65307        -0.56881
C          7.40109         8.40633        -0.22376
C          8.73766        10.54013        -0.54076
C          7.45511         9.88899        -0.07308
C          8.71733        12.00999        -0.62770
C          7.39391        12.69858        -0.83198
C          8.67349        14.79546        -1.51839
C          7.37383        14.04565        -1.50728
C          8.64131        16.27593        -1.37753
C          7.35888        16.96881        -1.34426
C          8.52474        19.08496        -0.89165
C          7.36044        18.42103        -1.21248
C          8.48354        20.52970        -0.52909
C          7.25479        21.30912        -0.83241
C          8.56021        23.48788        -0.51234
C          7.32663        22.80182        -1.05629
C          8.51328        24.87228        -0.33373
C          7.20191        25.62664        -0.39924
C          8.50027        27.76952         0.14653
C          7.24548        26.95632         0.38583
C          8.48795        29.17481         0.31977
C          7.18470        29.93761         0.36554
C         11.20191         3.60775         0.83933
C          9.99442         4.23799         0.60046
C         11.13942         6.28058        -0.23418
C          9.95599         5.58308         0.03712
C         11.18686         7.66689        -0.54998
C          9.91878         8.38559        -0.76403
C         11.20070        10.54846        -0.86427
C          9.92168         9.86661        -0.69315
C         11.22165        11.96425        -0.99211
C          9.97566        12.70255        -0.98728
C         11.18206        14.78504        -1.40706
C          9.93245        14.05804        -1.22111
C         11.11988        16.28802        -1.29862
C          9.81181        16.96691        -1.12208
C         10.99996        19.10132        -0.76043
C          9.80505        18.39352        -0.85638
C         11.00157        20.57798        -0.74707
C          9.77666        21.25756        -0.17284
C         11.02375        23.42184        -0.20785
C          9.77517        22.75738        -0.41659
C         11.07434        24.90411        -0.25500
C          9.74155        25.65937        -0.32919
C         10.94839        27.76633         0.27569
C          9.72475        27.08903         0.04840
C         10.93728        29.18040         0.49671
C          9.69062        29.86711         0.44031
C         13.62796         3.44683         0.22399
C         12.50129         4.33001         0.65723
C         13.68105         6.25348        -0.39120
C         12.39515         5.46191        -0.36545
C         13.68604         7.64198        -0.63041
C         12.41529         8.37773        -0.69757
C         13.67434        10.48297        -1.23310
C         12.40460         9.78550        -0.90136
C         13.72648        11.97010        -1.15269
C         12.46233        12.68504        -1.10147
C         13.66135        14.85184        -1.13431
C         12.45469        14.08759        -1.17059
C         13.65288        16.23905        -0.94403
C         12.35487        16.93027        -0.77671
C         13.57720        19.16125        -0.53250
C         12.29583        18.41873        -0.58535
C         13.54509        20.54541        -0.37443
C         12.29844        21.31353        -0.53034
C         13.52203        23.47327         0.04196
C         12.22157        22.72267        -0.08491
C         13.41458        24.87918         0.58694
C         12.23110        25.61776         0.28747
C         13.32035        27.71221         0.93692
C         12.17601        27.03156         0.46681
C         13.35797        29.14378         0.97941
C         12.15570        29.85600         0.76205
C         15.83954         3.25091        -0.76004
C         14.78667         4.03895        -0.28087
C         16.12654         6.15772        -0.55657
C         14.88090         5.51172        -0.37094
C         16.15405         7.56624        -0.72728
C         14.94237         8.28677        -0.80102
C         16.25727        10.44685        -1.11689
C         14.97198         9.71165        -1.20366
C         16.22063        11.92573        -1.30274
C         14.92134        12.64629        -1.27732
C         16.20658        14.92129        -0.97964
C         14.93857        14.13062        -1.29946
C         16.08839        16.30491        -0.48316
C         14.84382        16.99070        -0.62283
C         16.05332        19.10299        -0.15613
C         14.78595        18.39798        -0.40549
C         16.00467        20.59032         0.23629
C         14.66284        21.20640         0.32061
C         15.84091        23.32148         1.13253
C         14.59275        22.65595         0.72954
C         15.73878        24.74256         1.64821
C         14.52480        25.49571         1.13755
C         15.81290        27.67809         1.58046
C         14.47672        26.93720         1.39362
C         15.83350        29.11394         1.23202
C         14.61515        29.80949         1.11148
C         18.00389         3.18299        -2.02055
C         17.14498         3.84389        -1.01110
C         18.60047         5.90771        -1.40394
C         17.34263         5.31685        -0.75112
C         18.64159         7.43622        -1.34071
C         17.45827         8.28013        -0.90271
C         18.71353        10.50614        -0.86238
C         17.45901         9.77292        -1.07953
C         18.55707        11.87185        -0.27402
C         17.46753        12.69072        -0.90919
C         18.28228        14.67001         0.46681
C         17.55297        14.22482        -0.80624
C         18.32760        16.18044         0.59617
C         17.20573        16.93967         0.13857
C         18.29721        19.00822         0.96103
C         17.20935        18.35013         0.33840
C         18.29064        20.43873         1.20521
C         17.11386        21.19909         0.96445
C         18.20732        23.29981         1.79792
C         16.99197        22.58248         1.33384
C         18.32399        24.74745         1.34249
C         17.02988        25.51874         1.48736
C         18.33009        27.60261         1.36241
C         17.06451        26.88558         1.48452
C         18.31095        29.00703         1.10195
C         17.08016        29.72457         1.01618
C         18.64284         3.92502        -2.95907
C         19.49185         6.10436        -3.73715
C         18.81907         5.35513        -2.80814
C         19.99676         7.41182        -3.41777
C         19.68761         8.00604        -2.22322
C         21.15216        10.76538        -0.42561
C         20.02021        10.05187        -0.98099
C         21.02888        11.92175         0.26734
C         19.71355        12.56928         0.39442
C         20.38454        14.60499         1.78950
C         19.72233        14.09273         0.52654
C         20.27175        15.91887         2.06931
C         19.34620        16.78144         1.32828
C         20.50142        18.87289         2.02741
C         19.39642        18.22164         1.45142
C         20.54054        20.26627         2.14439
C         19.44912        21.05501         1.77373
C         20.73819        23.30401         1.82181
C         19.47629        22.53257         1.97764
C         20.76156        24.64878         1.81537
C         19.50619        25.47719         2.02827
C         20.75595        27.63056         1.39138
C         19.56092        26.91980         1.52957
C         20.74495        28.99928         1.06709
C         19.54804        29.68397         0.93501
O         18.67647        11.90766         1.19159
O         14.27222         9.95710        -2.48413
O          8.12204        14.15620        -2.75834
O         11.64750        21.17890        -1.89448
O          3.07305        23.35069        -2.41866
O         16.35406        20.17118        -1.11923
O          1.53806        14.35510        -2.44265
O          8.03510        12.70988         0.50245
O          9.15315         7.89911        -1.93182
O         10.58497        25.43714        -1.53006
O         18.65878        22.98379         3.14656
O         14.98357        27.34497         2.73448
O          7.50249        20.83436         0.54173
O         17.70958         4.36834         0.29672
O         11.25378        15.66732        -2.60625
O         15.75203        14.74539        -2.36316
O          2.55117         9.80172        -0.76541
O         18.53688         7.89492         0.02461
O          3.74280        27.31953         1.20181
O         12.19386        17.46831         0.57268
O          7.70481         5.36132        -0.95631
O         20.46230         9.05210        -1.81420
O          4.27971        16.60803         0.21358
O         17.22595        12.33778        -2.30268
O         14.19237        21.61089         1.66608
O         19.75841         5.47688        -0.65590
H         19.42934         4.86199         0.04491
O          1.41905        27.69078        -2.89067
H          1.46088        26.74048        -3.13272
O          5.79743         7.23446        -1.48627
H          6.41738         6.48493        -1.68256
O         19.25652        25.57965         3.44524
H         19.08280        24.66219         3.77347
O          2.12052        13.25614         1.31322
H          1.70924        13.16713         2.19893
O         12.28400         4.80961        -1.66713
H         12.04630         5.49152        -2.33040
O          7.00012        25.98250        -1.78872
H          7.06504        25.15505        -2.32143
O         14.03072        23.63333        -1.32577
H         13.31241        24.01373        -1.87587
O          6.21470        19.08818        -3.14777
H          5.46068        19.59173        -3.52368
O          7.33004        26.63952         1.81594
H          7.26439        27.48433         2.31129
O         20.53631        14.61021        -0.54760
H         19.97744        14.67935        -1.36060
O         12.83882         4.93674         1.94886
H         13.09440         4.21845         2.56440
O          7.09589        30.58094         1.64991
H          6.20309        30.97538         1.73148
O          9.95226        21.09423         1.26410
H          9.06050        21.19570         1.67160
O         18.33300        14.65656        -1.94497
H         17.81461        14.38738        -2.74048
O         15.52640        24.62253         3.09398
H         15.39081        25.54144         3.43220
O         18.61159        24.66142        -0.08122
H         18.69556        25.57449        -0.42939
O          7.43275        23.01614        -2.51114
H          8.35833        22.83694        -2.78516
O          5.76193        14.86072        -3.11725
H          6.63610        14.84942        -3.58025
O          7.42548        10.15085         1.38707
H          7.46975        11.13673         1.48346
O          1.53198        11.86167        -1.99092
H          1.28057        12.55593        -2.64733
O         17.48458        14.17023         1.56094
H         18.00627        14.25766         2.38670
O          3.06347         7.05166        -0.21356
H          2.84805         7.66816        -0.94936
O          6.08135        24.37731         1.41947
H          6.33957        25.17863         1.93784
O          4.92911        12.96315         0.87991
H          4.02069        13.24292         1.16008
H          2.97367         4.27111         5.61449
H          1.11770         5.81279         6.23299
H          0.68609         7.85256         4.90005
H          0.68223         9.64353         4.11196
H          0.35703        11.69552         2.80664
H         -0.82259        12.35558         0.49940
H         -1.13294        14.42507        -0.76983
H         -1.07050        16.49228        -0.88161
H         -1.06030        18.93238        -0.94124
H         -1.05360        20.79278        -0.95244
H         -1.11794        23.20077        -0.90204
H         -1.12102        25.18825        -0.95751
H         -1.06075        27.61900        -1.23294
H          0.26893        29.79847        -1.35062
H          4.77384         3.64679         4.12918
H          2.27613        30.98459        -0.60307
H          6.76756         3.14760         2.87919
H          4.76884        30.92246        -0.18199
H          8.91801         2.73408         1.75207
H          7.21057        30.73997        -0.43405
H         11.20900         2.65849         1.39907
H          9.67501        30.95831         0.57591
H         13.55563         2.35193         0.30260
H         12.15720        30.95310         0.84047
H         15.70474         2.16626        -0.88431
H         14.64284        30.89995         0.96687
H         17.92093         2.09169        -2.13170
H         17.11380        30.79889         0.78086
H         19.11683         3.43385        -3.82288
H         19.76487         5.65935        -4.70522
H         20.74544         7.87169        -4.07479
H         22.14290        10.31867        -0.58829
H         21.92028        12.46609         0.61012
H         21.04714        13.95117         2.37538
H         20.81823        16.35107         2.92057
H         21.36154        18.28619         2.37704
H         21.43072        20.74118         2.58054
H         21.67399        22.74024         1.68550
H         21.73123        25.15880         1.71216
H         21.72222        27.13142         1.54506
H         21.69830        29.53270         0.94806
H         19.54495        30.76160         0.71759
