         280
 CSIRO Nanostructure Databank - Neutral Graphene Oxide Data Set
C        -10.88026         0.55151        -0.98303
C         -9.83978         1.41421        -0.41042
C         -8.69842         0.69473         0.15522
C         -7.46342         1.48409         0.42390
C         -6.18675         0.78622         0.06086
C         -4.88263         1.46617         0.24148
C         -3.73522         0.75361         0.38259
C         -2.41476         1.43322         0.34494
C         -1.16265         0.69517         0.66579
C          0.09742         1.44328         1.02450
C          1.34040         0.72217         0.56760
C          2.67862         1.40466         0.78704
C          4.01620         0.67206         0.43089
C          4.94169         1.63342        -0.39198
C          6.15209         0.84509        -0.98746
C          7.44808         1.61547        -1.16322
C          8.70889         0.82928        -1.42606
C         10.04461         1.49465        -1.28306
C         11.24172         0.63297        -1.05345
C         -9.84789         2.77827        -0.52763
C         -8.79448         3.71692         0.05688
C         -7.47858         2.97260         0.30625
C         -6.16690         3.61925        -0.05129
C         -4.90282         2.96071         0.47908
C         -3.64852         3.66128        -0.01450
C         -2.36393         2.92769         0.17356
C         -1.19919         3.67286         0.79295
C          0.09333         2.93624         1.05884
C          1.38866         3.67401         0.78035
C          2.68271         2.90122         0.96772
C          4.03455         3.62414         0.95412
C          5.27107         2.89001         0.46381
C          6.67635         3.54419         0.40078
C          7.59580         3.03508        -0.70165
C          8.96853         3.63507        -0.64280
C         10.08669         2.92219        -0.89739
C         -8.60030         5.00754        -0.80497
C         -7.38319         5.84437        -0.38547
C         -6.10777         5.09224        -0.30619
C         -4.83814         5.81235        -0.01775
C         -3.65553         5.14377         0.08443
C         -2.29103         5.80706        -0.04296
C         -1.22060         5.16855         0.85584
C          0.08018         5.92421         1.25007
C          1.37711         5.17379         0.82687
C          2.68753         5.90392         1.01278
C          4.03228         5.13827         0.99430
C          5.30540         5.83670         0.56345
C          6.69842         5.14561         0.55211
C          7.70810         5.79860        -0.37934
C          9.06615         5.11814        -0.34018
C         -7.39868         7.18955        -0.28199
C         -6.21219         8.04924         0.13040
C         -4.91721         7.25470         0.32534
C         -3.64133         8.03092         0.40071
C         -2.36727         7.34073         0.01023
C         -1.11138         8.11063         0.20695
C          0.08834         7.41914         0.78969
C          1.39442         8.14716         0.58443
C          2.69000         7.38285         0.72287
C          3.84312         7.89485        -0.10323
C          5.10060         7.09339        -0.25210
C          6.29083         7.83969        -0.88901
C          7.57434         7.05212        -0.85068
C         -5.90492         9.19467        -0.83473
C         -4.75111         9.88218        -0.76998
C         -3.71900         9.56990         0.31415
C         -2.35706        10.23285         0.17257
C         -1.17139         9.60083         0.31210
C          0.15822        10.35723         0.26907
C          1.39428         9.50776         0.05722
C          2.73372        10.20814         0.08669
C          3.88966         9.38758        -0.51837
C          5.24870         9.94458        -0.10968
C          6.36793         9.22579        -0.27434
C        -10.88763        -0.79083        -0.82616
C         -9.94526        -1.50264         0.12906
C         -8.68922        -0.66689         0.30130
C         -7.41077        -1.33944         0.62394
C         -6.22124        -0.70763        -0.03966
C         -4.91939        -1.45284        -0.15067
C         -3.75887        -0.73874         0.49519
C         -2.51041        -1.48877         0.80775
C         -1.21282        -0.75582         1.04216
C          0.08012        -1.49325         0.94760
C          1.29824        -0.76780         0.45709
C          2.65646        -1.48571         0.49679
C          3.68557        -0.63139        -0.34248
C          4.88908        -1.46333        -0.82903
C          6.11828        -0.66028        -1.22023
C          7.40925        -1.45159        -1.37979
C          8.69044        -0.68299        -1.28250
C          9.77113        -1.22011        -0.33932
C         11.13303        -0.65343        -0.68673
C         -9.74887        -2.99385        -0.14227
C         -8.69108        -3.71398        -0.58708
C         -7.44702        -3.10538        -1.16931
C         -6.11418        -3.76476        -0.78248
C         -4.88729        -2.92621        -0.44082
C         -3.62303        -3.68941        -0.07090
C         -2.42179        -2.94303         0.43097
C         -1.24500        -3.67720         1.02372
C          0.04651        -2.96188         0.69731
C          1.32278        -3.68785         0.43653
C          2.60717        -2.97541         0.17254
C          3.70415        -3.68603        -0.21224
C          4.88170        -2.97333        -0.82352
C          6.15419        -3.74434        -1.28768
C          7.45409        -2.95299        -1.09750
C          8.68385        -3.58278        -0.41966
C          9.73044        -2.68014         0.01028
C         -8.78088        -5.24660        -0.62530
C         -7.44230        -5.98036        -0.49934
C         -6.15187        -5.22454        -0.45420
C         -5.01743        -5.87332         0.30826
C         -3.73950        -5.11787         0.40758
C         -2.44788        -5.88144         0.46412
C         -1.24095        -5.16210         0.97707
C          0.07983        -5.88902         0.99147
C          1.35444        -5.12734         0.82659
C          2.54443        -5.93059         0.39529
C          3.68626        -5.18506        -0.20977
C          4.97587        -5.92887        -0.34986
C          6.21277        -5.20481        -0.80116
C          7.50005        -5.85969        -0.39881
C          8.54969        -4.96016         0.22282
C         -7.34859        -7.32809        -0.55607
C         -5.98068        -8.00083        -0.59425
C         -5.09282        -7.39943         0.51180
C         -3.71537        -8.12606         0.56665
C         -2.42375        -7.37147         0.43583
C         -1.14426        -8.11248         0.88433
C          0.13021        -7.33129         0.48392
C          1.41397        -8.07744         0.81904
C          2.66602        -7.27147         1.13658
C          4.00921        -8.05711         0.95339
C          5.22952        -7.20679         0.45778
C          6.30273        -8.07906        -0.31810
C          7.56012        -7.20902        -0.24836
C         -6.01377        -9.51485        -0.48683
C         -4.92996       -10.23165        -0.14674
C         -3.64666        -9.58599         0.26356
C         -2.32644       -10.24181        -0.15226
C         -1.05952        -9.52114         0.30338
C          0.16530       -10.10308         0.19048
C          1.43691        -9.42589         0.51339
C          2.69514       -10.12620         0.39989
C          3.92445        -9.47367         0.45139
C          5.22281       -10.15686         0.42991
C          6.37889        -9.46925         0.28052
O         -6.57259         8.65495         1.40307
H         -6.38970         7.99832         2.10949
O          8.27890        -1.24370        -2.54068
O         -3.64617        -9.11020         1.65388
O          6.07785        -3.80723        -2.72042
H          5.35597        -4.43002        -2.95841
O         -7.44098         2.31917         1.63132
O          9.44249         1.24969        -2.61083
O         -7.50371        -2.18315        -1.95913
O         -2.27556        -6.60916        -0.80302
O          2.99960        -1.55909         1.90088
H          3.62175        -0.83061         2.15639
O         -2.89395         3.20044        -1.16498
O          1.02928         0.07352        -0.69279
O         -1.56223         0.84141        -0.72074
O          5.40522        -5.99210        -1.73838
O          4.74039         0.33244         1.62089
H          4.78052         1.15952         2.17524
O          2.78329         6.89397         2.08027
O         -4.62991        -1.93830        -1.48135
O         -1.61778         7.82530        -1.15115
O          2.65519         1.99316         2.11291
O         -3.49828        -1.21626         1.85894
O          2.67803        -5.87424        -1.04678
O          3.12807        -0.17028        -1.57485
H          3.07570        -0.93411        -2.19475
O          4.90237         2.90942         1.87439
O          5.80078         0.26113        -2.28981
O          0.84842        -5.46837         2.14056
O         -0.46752        -1.10181         2.24141
O         -7.28233        -2.31052         1.36344
O          0.10663        11.41081        -0.69442
H         -0.02041        11.01785        -1.58236
O          5.86591        -6.72743         1.67161
H          5.57643        -7.38379         2.36992
O         -6.03163         4.09233        -1.40956
O         -1.47437        -4.42153         2.23124
O          7.16455         2.76009        -2.05460
O          0.60874         8.22679         1.86590
O          4.87829         5.81292         1.95186
O         -4.63790        -5.20383         1.55939
O          2.97160        10.46774         1.48357
H          2.93585         9.62760         1.99035
O          2.63855        -6.92959         2.53618
H          3.15544        -7.64549         2.99542
O          8.49489        -3.58589        -1.87236
O          7.35869         3.02559         1.56088
H          7.43197         3.80825         2.18364
O          0.09017         2.14444         2.28784
O          7.29780         5.45520         1.78196
O          0.22092        -7.26363        -0.95869
H         -0.59892        -6.84222        -1.31736
O          4.21214         2.19713        -1.48493
H          4.15614         1.50952        -2.19222
O          3.72817         9.49480        -1.93744
H          4.48481         8.99725        -2.34762
O          9.99498         5.73717        -1.22695
H          9.78662         5.45665        -2.14169
O         -2.33765       -10.31410        -1.58271
H         -1.42826       -10.49045        -1.89956
O          5.92442        -8.41068        -1.66533
H          5.93254        -7.59454        -2.21727
O        -10.62530        -1.48693         1.42237
H        -10.84730        -0.55798         1.64255
O         -1.72162         4.40190         1.97329
O         -1.81085         5.45497        -1.35737
H         -2.42394         5.80117        -2.03829
O          9.36946        -0.58437         0.93542
H         10.10363        -0.67878         1.57966
O          6.00057         8.04248        -2.30377
H          5.72447         7.17827        -2.67843
O          1.32010         4.46773        -0.44614
O          4.01919         6.95928        -1.23300
O          4.41076        -2.22111        -1.98983
O         -4.86822         3.15781         1.91466
H         -5.70357         2.79144         2.29207
O          0.11967         5.97080         2.67684
H         -0.46203         5.25548         3.02822
O          0.40010        -3.35061        -0.67216
O         -5.33099        -7.65966        -1.83848
H         -5.88766        -7.95976        -2.58576
O          4.35312        -8.58969         2.24063
O         -1.16622        -8.19959         2.31611
H         -1.98887        -8.68087         2.57139
O         -2.54171        -3.33991        -0.97108
O         -4.23077        10.09938         1.54979
H         -5.13382         9.71456         1.68958
O         -4.23772         7.49321         1.61664
O         -5.75082        -4.76777        -1.79142
O          8.12698        -4.74597         1.58367
H          7.52450        -5.48328         1.84577
O         -5.77516        -7.61864         1.74788
H         -5.31934        -7.09422         2.44156
O         -6.43985         0.11927        -1.21693
O         -9.79284         5.76987        -0.73194
H        -10.07869         5.76927         0.20758
O         -9.69859        -5.72798         0.35255
H         -9.32933        -5.55349         1.24263
O         -9.28847         4.18605         1.33437
H         -9.09572         3.48427         1.99694
H         12.02396        -1.28764        -0.56728
H         12.23247         1.07171        -1.25053
H         11.06849         3.41836        -0.84256
H          9.45970         5.25478         0.70325
H          8.43102         7.50315        -1.37874
H          7.35065         9.63653         0.00021
H          5.29081        10.96238         0.30643
H          2.67257        11.19542        -0.42683
H          0.29769        10.86330         1.26923
H         -2.36672        11.33308         0.12569
H         -4.57654        10.72738        -1.45362
H         -6.67034         9.46717        -1.57750
H         -8.36079         7.71399        -0.39828
H         -8.44417         4.70717        -1.87406
H        -10.71514         3.26317        -1.00337
H        -11.64960         1.03354        -1.60540
H        -11.68594        -1.38478        -1.29567
H        -10.60471        -3.58938         0.22565
H         -9.21435        -5.52084        -1.62705
H         -8.25832        -7.94577        -0.62224
H         -6.94256       -10.03411        -0.77272
H         -4.97178       -11.33223        -0.14299
H         -2.31347       -11.29411         0.26863
H          0.23668       -11.13836        -0.18457
H          2.67064       -11.19872         0.15015
H          5.23890       -11.23319         0.66504
H          7.35072        -9.98158         0.34855
H          8.49992        -7.66029         0.11290
H          9.55378        -5.47253         0.21508
H         10.35135        -2.98559         0.86854
