         598
 CSIRO Nanostructure Databank - Neutral Graphene Oxide Data Set
C         23.00889        70.04687        -0.27892
C         23.00203        71.47280        -0.24639
C         21.86415        72.20000        -0.68090
C         23.02089        74.30127        -0.33212
C         21.87663        73.59538        -0.69656
C         25.37870        65.72476         0.12059
C         25.37188        67.12770         0.15967
C         24.16711        67.88966        -0.03210
C         25.28529        69.97631         0.71823
C         24.12807        69.28182         0.10341
C         25.29534        71.47637         0.75879
C         24.14884        72.19648         0.19463
C         25.41682        74.31834         0.28805
C         24.18930        73.61344         0.09391
C         27.72444        61.30802         0.77546
C         27.79273        62.81203         0.54364
C         26.61528        63.50141         0.43308
C         27.87127        65.63285         0.08438
C         26.59772        64.99674         0.60684
C         27.86423        67.14857        -0.00357
C         26.61111        67.83826         0.30017
C         27.89937        70.00696         0.71118
C         26.62669        69.23105         0.73394
C         27.90207        71.46313         0.75301
C         26.63566        72.22346         0.86210
C         27.86664        74.33724         0.38754
C         26.63570        73.66091         0.49378
C         30.23206        57.04054        -0.10065
C         30.23957        58.38122         0.21954
C         29.03824        59.20308         0.24776
C         30.24522        61.26099         0.95002
C         29.01443        60.53355         0.57329
C         30.28837        62.77574         0.90391
C         29.05788        63.51992         0.58346
C         30.37572        65.60351         0.43476
C         29.13808        64.90793         0.36346
C         30.42775        67.09311         0.30679
C         29.15502        67.88936         0.15823
C         30.35273        70.06171         0.66860
C         29.08707        69.31103         0.58928
C         30.32909        71.49558         0.30312
C         29.07923        72.18256         0.50103
C         30.32324        74.30604         0.26776
C         29.09571        73.63424         0.39774
C         32.68486        52.60381         0.13319
C         32.68673        54.04097        -0.23702
C         31.45289        54.86491        -0.24126
C         32.71749        57.00343        -0.32530
C         31.44690        56.23936        -0.20001
C         32.77210        58.39361         0.13670
C         31.52387        59.03083         0.58652
C         32.77393        61.26945         0.60404
C         31.54473        60.52339         0.87694
C         32.80373        62.68959         0.52256
C         31.58544        63.46446         0.71241
C         32.88866        65.57462         0.64321
C         31.58500        64.86676         0.63268
C         32.91958        67.08145         0.59328
C         31.61926        67.78160         0.96539
C         32.76346        69.96339        -0.00720
C         31.66621        69.31298         0.71313
C         32.67904        71.38106        -0.52731
C         31.50145        72.15973         0.00993
C         32.76760        74.28090        -0.07459
C         31.55481        73.60929         0.05797
C         35.25879        48.44265         0.17684
C         35.15819        49.80135         0.49548
C         33.95160        50.50436         0.32611
C         35.04045        52.67903         0.94898
C         33.85762        51.91818         0.43335
C         35.08220        54.14770         0.67895
C         34.00881        54.75682        -0.17166
C         35.27829        56.96793         0.01689
C         34.04469        56.24238        -0.30596
C         35.22762        58.36247         0.00530
C         33.98378        59.05128         0.24933
C         35.32359        61.23244         0.31195
C         34.01492        60.48850         0.60024
C         35.17627        62.58494        -0.25631
C         33.96675        63.34403         0.02891
C         35.18507        65.51321        -0.60595
C         34.08572        64.80774         0.14159
C         35.18891        67.02311        -0.69919
C         34.05750        67.78277        -0.07196
C         35.24589        69.97898        -0.63025
C         33.90389        69.21109        -0.47072
C         35.18827        71.41959        -0.33219
C         34.01037        72.10336        -0.36323
C         35.30939        74.26825        -0.21744
C         34.00878        73.59845        -0.58454
C         37.70056        44.25326        -0.21552
C         37.72935        45.60652         0.10279
C         36.52811        46.36630        -0.00451
C         37.72253        48.43532         0.57363
C         36.48925        47.73381         0.26591
C         37.68893        49.82385         0.83484
C         36.37469        50.47609         1.02043
C         37.63604        52.68737         1.21821
C         36.33936        51.96992         1.26751
C         37.63537        54.15728         1.25945
C         36.35996        54.91111         0.91169
C         37.71615        56.93275         0.49845
C         36.49066        56.27861         0.37830
C         37.81957        58.32709         0.05952
C         36.47951        59.08902        -0.17535
C         37.78519        61.20751        -0.13146
C         36.54631        60.52162        -0.06815
C         37.75571        62.61443        -0.28045
C         36.52318        63.27951        -0.64769
C         37.76556        65.52455        -0.93923
C         36.46521        64.76311        -0.89690
C         37.77393        67.03942        -0.97539
C         36.47558        67.79081        -0.95068
C         37.70664        69.85249        -0.26834
C         36.51662        69.23038        -0.56699
C         37.72444        71.29001         0.11538
C         36.44586        72.09011         0.07376
C         37.76455        74.18814         0.08786
C         36.49183        73.57002        -0.02367
C         40.27226        40.06996        -1.16925
C         40.17962        41.44572        -0.77172
C         38.95737        42.07525        -0.61627
C         40.17390        44.11563         0.39074
C         38.85378        43.39702         0.00098
C         40.17702        45.58703         0.49956
C         38.97275        46.28839         0.44924
C         40.16339        48.43019         0.87197
C         38.95929        47.72619         0.62211
C         40.14019        49.86501         0.99822
C         38.88592        50.55835         0.99758
C         40.12264        52.70655         1.23239
C         38.86558        52.00050         1.15045
C         40.13626        54.15843         1.49809
C         38.90432        54.88903         1.16806
C         40.11442        57.04130         1.18604
C         38.92480        56.25114         0.92903
C         39.92343        58.40565         1.24963
C         38.94060        59.14655         0.51865
C         40.27321        61.30781         0.25475
C         39.02083        60.52668         0.25248
C         40.24810        62.65422        -0.04324
C         38.97089        63.38990        -0.05390
C         40.23687        65.59656        -0.41963
C         38.96602        64.87132        -0.32318
C         40.21800        66.99661        -0.46406
C         38.99501        67.74784        -0.53654
C         40.20878        69.84106        -0.12400
C         38.97567        69.13340        -0.30104
C         40.21978        71.29826        -0.00583
C         39.00319        72.02174         0.05621
C         40.22725        74.14614         0.03146
C         38.99061        73.45529         0.08961
C         42.80704        35.91357        -1.49742
C         42.74059        37.32106        -1.62307
C         41.53499        37.99014        -1.45600
C         42.73704        40.15385        -1.38380
C         41.48648        39.41266        -1.35460
C         42.66633        41.59462        -1.09266
C         41.41788        42.17307        -0.52710
C         42.68068        44.13566         0.35386
C         41.42147        43.43738         0.00321
C         42.63497        45.55789         0.72521
C         41.43451        46.26900         0.72998
C         42.59390        48.38794         1.25205
C         41.41450        47.70528         0.96790
C         42.58295        49.84796         1.40839
C         41.34437        50.59564         1.15752
C         42.61039        52.77576         1.22862
C         41.35748        52.02441         1.23877
C         42.66051        54.16449         1.28094
C         41.44294        54.92978         1.62947
C         42.70711        57.13274         1.02902
C         41.46141        56.48488         1.69830
C         42.82400        58.53132         0.76959
C         41.77187        59.47053         1.01431
C         42.77678        61.27430        -0.22717
C         41.59360        60.66224         0.32541
C         42.75676        62.68431        -0.56481
C         41.42898        63.40664        -0.63052
C         42.72269        65.58683        -0.51205
C         41.49564        64.84124        -0.04670
C         42.68875        66.95339        -0.54189
C         41.45618        67.71310        -0.36534
C         42.71366        69.81560        -0.11472
C         41.42275        69.11164        -0.22761
C         42.72628        71.32299        -0.00012
C         41.43915        72.02268        -0.00535
C         42.70374        74.14288        -0.13403
C         41.45554        73.45196        -0.03767
C         45.32137        33.16621        -1.25504
C         44.09468        33.82233        -1.33142
C         45.26791        35.98911        -1.59663
C         44.03059        35.22855        -1.49280
C         45.23905        37.35568        -1.79407
C         43.95838        38.08529        -2.06178
C         45.19645        40.28552        -1.60131
C         43.95433        39.54484        -1.67283
C         45.23190        41.61127        -1.15477
C         43.96613        42.33843        -0.94264
C         45.24653        44.36721        -0.02865
C         44.00395        43.54962        -0.06232
C         45.21160        45.55433         0.72070
C         43.91350        46.16114         1.12510
C         45.13579        48.45121         1.25986
C         43.87581        47.69032         1.41476
C         45.14903        49.84416         1.25706
C         43.88919        50.60151         1.41025
C         45.15208        52.75823         1.23932
C         43.87988        52.02149         0.88109
C         45.13613        54.19763         1.10127
C         43.87890        54.90564         0.99630
C         45.09181        56.97193         0.32137
C         43.84700        56.31335         0.78096
C         45.18682        58.42550         0.12524
C         44.00448        59.16290         0.21039
C         45.19331        61.14829        -0.78053
C         43.97149        60.54397        -0.21094
C         45.18060        62.65324        -1.07124
C         43.91394        63.37184        -0.83529
C         45.21344        65.54654        -1.06649
C         43.86955        64.84273        -1.17938
C         45.20008        66.94331        -1.00951
C         43.90964        67.68312        -0.95048
C         45.15909        69.92755        -0.73909
C         43.90223        69.17555        -0.74139
C         45.15966        71.32626        -0.59473
C         43.95660        72.04787        -0.33560
C         45.17685        74.18686        -0.41947
C         43.93946        73.47447        -0.30694
C         46.52423        33.87697        -1.31813
C         47.74849        35.99885        -1.49993
C         46.53611        35.27985        -1.48102
C         47.78075        37.39698        -1.66437
C         46.50494        38.09218        -1.96760
C         47.77216        40.33261        -1.74390
C         46.47304        39.59764        -1.93469
C         47.74046        41.78904        -1.38390
C         46.42932        42.40362        -1.03205
C         47.70297        44.48822        -0.86940
C         46.41704        43.73897        -0.61724
C         47.66772        45.63423         1.26504
C         46.40106        46.31626         1.08607
C         47.61081        48.48792         1.19080
C         46.35793        47.71786         1.17586
C         47.57406        49.91922         1.52688
C         46.38147        50.59725         1.35712
C         47.60982        52.75646         1.51420
C         46.34613        52.05758         1.39245
C         47.57238        54.22269         1.63504
C         46.34078        54.90451         1.20470
C         47.61732        57.09417         0.82182
C         46.41113        56.24143         0.64000
C         47.64909        58.38307         0.09502
C         46.45958        59.05823        -0.16422
C         47.66819        61.16294        -0.71319
C         46.49184        60.46306        -0.55569
C         47.69777        62.58609        -1.17037
C         46.46021        63.40775        -1.16355
C         47.70313        65.58943        -1.48731
C         46.45265        64.80493        -1.23100
C         47.62422        67.07607        -1.38345
C         46.39961        67.71202        -1.11022
C         47.66915        69.98586        -1.12144
C         46.34418        69.19245        -1.18214
C         47.60414        71.38200        -0.70466
C         46.40862        72.06506        -0.63137
C         47.64773        74.21167        -0.58945
C         46.40576        73.51919        -0.51278
C         48.95937        38.13038        -1.47928
C         50.15159        40.21546        -1.03191
C         48.99944        39.54932        -1.43570
C         50.18139        41.61699        -0.73328
C         48.96885        42.40284        -0.82156
C         50.13708        44.38550         0.03869
C         48.95459        43.74415        -0.48481
C         50.11908        45.65040         0.66778
C         48.89248        46.28023         1.07594
C         50.13970        48.34237         1.79167
C         48.91097        47.76515         1.10381
C         50.16010        49.88455         1.78505
C         48.84698        50.63495         1.74240
C         50.10291        52.79477         1.45094
C         48.83405        52.09865         1.53796
C         50.13157        54.19258         1.43142
C         48.90537        54.97993         1.63256
C         50.17210        57.11234         0.91353
C         48.90215        56.44684         1.27655
C         50.18478        58.38381         0.38947
C         48.95323        58.99297        -0.18065
C         50.20172        61.24463        -0.32059
C         48.97482        60.46337        -0.62752
C         50.18725        62.62125        -0.41748
C         49.05253        63.31796        -1.07932
C         50.29545        65.53693        -0.83930
C         49.08740        64.81362        -1.29247
C         50.56494        66.82698        -1.25215
C         48.76635        67.90138        -1.60541
C         50.17134        69.81393        -0.73781
C         48.92546        69.21938        -1.10855
C         50.13614        71.26786        -0.35556
C         48.86005        72.06522        -0.36887
C         50.12883        74.18249        -0.65046
C         48.89002        73.53882        -0.54985
C         51.36322        42.25347        -0.36347
C         52.59409        44.31058         0.17029
C         51.39820        43.65198        -0.05025
C         52.59896        45.81060         0.14158
C         51.36197        46.41177         0.77985
C         52.66406        48.43020         1.57865
C         51.39342        47.69191         1.25618
C         52.61164        49.89236         1.14349
C         51.37279        50.61994         1.32287
C         52.47886        52.70529         0.61582
C         51.31287        52.00723         1.19956
C         52.62085        54.16639         0.90337
C         51.41471        54.92978         1.36747
C         52.67430        57.07977         0.81542
C         51.43558        56.46305         1.42974
C         52.65903        58.47016         0.56046
C         51.41568        59.15571         0.33192
C         52.64235        61.28341         0.19126
C         51.40859        60.54196         0.08292
C         52.64084        62.69552         0.22400
C         51.34093        63.38654         0.11180
C         52.65345        65.59797         0.04820
C         51.34543        64.89962        -0.02242
C         52.69272        67.01131        -0.12901
C         51.54779        67.68678        -0.65066
C         52.56916        69.83579        -0.00040
C         51.39318        69.10507        -0.55544
C         52.58941        71.36902        -0.05222
C         51.37125        72.06367        -0.43301
C         52.63005        74.14957        -0.57039
C         51.36982        73.46507        -0.56342
C         53.87620        46.43740         0.61358
C         55.12181        48.45784         1.15868
C         53.90726        47.72282         1.08933
C         55.09658        49.86551         1.01245
C         53.79874        50.53251         0.82359
C         55.07923        52.65403         0.15411
C         53.77007        51.92868         0.36598
C         55.08607        54.16057         0.09406
C         53.81255        54.90852         0.38795
C         55.11652        57.02275         0.51236
C         53.87407        56.36125         0.64887
C         55.12860        58.45299         0.50799
C         53.89689        59.16357         0.41931
C         55.11518        61.29404         0.27648
C         53.88758        60.58246         0.30512
C         55.12018        62.73135         0.29256
C         53.85595        63.43578         0.34424
C         55.06383        65.62620         0.56688
C         53.81999        64.87148         0.35550
C         55.10972        67.07463         0.31969
C         53.90934        67.75517         0.07506
C         55.07040        69.92642         0.23075
C         53.88896        69.18002         0.04256
C         55.04443        71.36924         0.14552
C         53.87277        72.06599        -0.10795
C         55.09620        74.19498        -0.40937
C         53.85870        73.49441        -0.37182
C         56.29496        50.57807         0.97330
C         57.58889        52.76665         0.61808
C         56.36122        51.95551         0.48538
C         57.59744        54.11725         0.44013
C         56.36313        54.88540         0.30848
C         57.60673        56.97062         0.84749
C         56.34949        56.26039         0.48551
C         57.61461        58.47016         0.81580
C         56.35325        59.18024         0.47707
C         57.60657        61.27984         0.01169
C         56.34300        60.56606         0.30678
C         57.61323        62.75195         0.05784
C         56.36073        63.41935         0.22481
C         57.55605        65.64754         0.02087
C         56.38046        64.86398         0.46761
C         57.58172        67.09987         0.25321
C         56.34267        67.79348         0.34353
C         57.57163        69.91329         0.28634
C         56.33399        69.22637         0.31674
C         57.60210        71.38370         0.38512
C         56.28997        72.14207         0.31544
C         57.55580        74.21671        -0.18265
C         56.31846        73.55948        -0.11505
C         58.93092        54.81782         0.26941
C         60.16429        57.04346         0.54337
C         58.92526        56.25299         0.74942
C         60.18842        58.39623         0.52493
C         58.93349        59.17529         0.67114
C         60.17230        61.34181         0.22432
C         58.92609        60.56240         0.10898
C         60.11513        62.75386         0.13264
C         58.84518        63.42920         0.03059
C         60.09933        65.65350         0.01463
C         58.86058        64.89019        -0.15642
C         60.05793        67.06740         0.06425
C         58.80498        67.78743         0.13969
C         60.04162        69.93479         0.03853
C         58.80153        69.21869         0.17543
C         60.04157        71.38773        -0.04949
C         58.84328        72.10134         0.06065
C         60.02643        74.22816        -0.20069
C         58.80865        73.53333        -0.07938
C         61.50140        59.14053         0.33419
C         62.58782        61.39317         0.38176
C         61.40881        60.65798         0.35034
C         62.58076        62.81797         0.30247
C         61.33142        63.50810         0.17594
C         62.54968        65.66687         0.18353
C         61.32788        64.94192         0.12444
C         62.54117        67.09618         0.14405
C         61.27804        67.80543         0.07689
C         62.54761        69.91689        -0.33877
C         61.24765        69.21998        -0.01407
C         62.51274        71.41596        -0.17103
C         61.28111        72.10563        -0.16471
C         62.50023        74.23849        -0.25966
C         61.27048        73.54531        -0.19675
C         63.78736        63.54999         0.34704
C         65.00783        65.69989         0.33062
C         63.79995        64.96467         0.28849
C         65.00643        67.11563         0.30717
C         63.75351        67.80219         0.23704
C         65.00619        70.00022         0.11148
C         63.71063        69.29721         0.42803
C         64.98875        71.39182        -0.08665
C         63.73032        72.11189        -0.15681
C         64.97302        74.23384        -0.30724
C         63.73357        73.54995        -0.23160
C         66.21839        67.86159         0.31718
C         67.45152        69.99553         0.03867
C         66.23755        69.27869         0.16787
C         67.45697        71.40023        -0.11928
C         66.21499        72.10981        -0.17890
C         67.44522        74.22652        -0.38946
C         66.20492        73.53921        -0.30073
C         68.67151        72.13739        -0.21965
C         68.65135        73.52372        -0.35520
O         25.80000        71.97402         2.03377
O         27.78474        66.28149        -1.19895
O         43.79757        38.01254        -3.64578
O         56.94566        71.90166         1.60334
O         48.19595        54.70231         2.87651
O         31.62957        59.52736         1.96292
O         47.71678        45.55394        -1.46284
O         49.40879        71.56509         0.90964
O         49.56440        50.36344         3.03543
O         25.78045        69.39506         1.94105
O         42.95231        70.41383         1.18033
O         37.31701        58.57722        -1.26942
O         38.76273        64.38843         1.08283
O         49.84149        67.36340        -2.31865
O         54.21781        54.63673        -0.99061
O         36.77814        54.77635         2.29732
O         43.64339        68.58798        -2.07947
O         36.95297        71.56941         1.35246
O         33.63647        54.12896        -1.42268
O         34.02717        67.63642         1.38500
O         43.23583        50.34895         2.67387
O         33.45460        56.72739        -1.55127
O         38.02560        66.22370        -2.17663
O         39.37291        43.43334         1.38827
O         43.18683        42.47691        -2.17038
O         55.84501        65.24816         1.76417
O         35.48052        65.00059        -1.93314
O         48.60848        62.67589        -2.31177
O         58.03076        65.30360        -1.31542
O         45.85281        56.25996        -0.71224
O         50.95292        64.26377         1.24190
O         35.55422        67.47196        -2.02536
O         55.83786        52.05274        -0.93567
O         43.91862        46.69922         2.48456
O         40.82990        59.15697         1.98790
O         58.26900        60.70082        -1.19365
O         46.94622        69.76357        -2.38771
O         58.26810        56.41542         2.04033
O         47.92353        41.36210        -2.77965
O         49.14259        59.38222        -1.58790
O         31.14599        69.97404         1.92474
O         33.91531        65.12489         1.57775
O         52.41360        54.39573         2.33540
O         48.54315        65.14902        -2.58612
O         34.41066        69.59960        -1.78219
O         34.57581        53.64016         1.95536
O         34.92434        60.94480         1.67855
O         52.81885        52.23302        -0.71059
O         30.07958        67.68003        -0.98179
O         36.21032        51.02121         2.37620
O         48.07134        57.22779         2.20870
O         48.43215        48.39467        -0.11120
O         46.49616        38.88862        -3.22296
O         40.75290        54.43378         2.82434
O         45.04150        61.64705        -2.14596
O         52.33293        70.61435         1.20602
O         30.14256        62.02795         2.19456
O         43.49351        43.30254         1.29101
O         58.28319        59.08182         1.97995
O         35.69823        62.56479        -1.61729
O         62.81065        69.66197        -1.75081
H         62.08070        70.05514        -2.27302
O         63.44836        69.52492         1.84718
H         64.19373        69.14367         2.35697
O         32.42071        71.33840        -1.98899
H         33.09559        70.71536        -2.36469
O         31.43916        67.54556         2.36918
H         32.23106        67.88646         2.83804
O         62.11661        58.73072        -0.89994
H         61.54169        59.01537        -1.64005
O         33.89095        73.73137        -2.05845
H         33.22564        73.05425        -2.34538
O         50.04825        47.91784         3.18584
H         49.65585        48.68036         3.68329
O         43.90054        51.86446        -0.57716
H         44.02537        52.75183        -0.97642
O         43.97700        39.31056        -4.19804
H         44.96786        39.39031        -4.25803
O         51.49627        56.80770         2.84356
H         52.06295        56.13281         3.28150
O         26.64537        60.77390         0.01911
H         26.43507        59.87941         0.35299
O         59.24972        54.84066        -1.12949
H         59.05268        53.96069        -1.51152
O         41.54592        64.74919         1.40532
H         40.62053        64.59084         1.71581
O         52.51164        46.17852        -1.28935
H         51.66089        45.82666        -1.63082
O         52.77462        48.43816         3.03855
H         51.88708        48.21131         3.41295
O         43.51721        64.86955        -2.61561
H         43.59079        65.79724        -2.93069
O         41.59494        56.83208         3.08887
H         41.07476        56.16990         3.60108
O         41.09094        63.54234        -2.03978
H         41.88349        63.91418        -2.50486
O         47.63822        44.34234         1.69171
H         46.71379        44.07700         1.88076
O         26.66400        65.22020         2.06805
H         25.83713        64.87267         2.46414
H         23.03481        75.39896        -0.38651
H         25.42658        75.40407         0.10903
H         27.86946        75.42412         0.21723
H         30.32971        75.40624         0.25668
H         32.77645        75.38024        -0.00980
H         35.34188        75.36743        -0.27613
H         37.82026        75.28683         0.06269
H         40.22770        75.24574         0.02087
H         42.69550        75.24256        -0.10706
H         45.15961        75.28577        -0.37580
H         47.63890        75.31048        -0.64754
H         50.16127        75.27708        -0.75337
H         52.63036        75.24048        -0.71173
H         55.09618        75.26336        -0.67194
H         57.57188        75.29366        -0.40824
H         60.01703        75.32486        -0.28392
H         62.49723        75.33684        -0.32085
H         64.97599        75.33190        -0.38029
H         67.44754        75.32186        -0.48311
H         22.11754        69.52575        -0.65854
H         20.96713        71.65102        -1.00013
H         20.98144        74.14224        -1.02397
H         24.42781        65.18212         0.01368
H         23.26815        67.36169        -0.38207
H         27.48443        61.18623         1.87969
H         25.66292        62.95026         0.41532
H         29.27071        56.54179        -0.30086
H         28.09219        58.70237        -0.01445
H         31.78001        52.02174        -0.10393
H         30.49638        54.32869        -0.13690
H         34.36144        47.90060        -0.15687
H         33.07128        49.94831        -0.03021
H         36.79111        43.82072        -0.65856
H         35.59767        45.84347        -0.27079
H         39.34103        39.48796        -1.23527
H         38.03675        41.57362        -0.94958
H         41.87610        35.35411        -1.31910
H         40.61208        37.41483        -1.28877
H         45.34563        32.07430        -1.13292
H         43.15862        33.24972        -1.26438
H         47.48114        33.34076        -1.24353
H         48.69387        35.45914        -1.33967
H         49.88352        37.58144        -1.24244
H         51.06985        39.63209        -0.86570
H         52.30923        41.69178        -0.37184
H         53.54609        43.76063         0.13891
H         54.81974        45.95317         0.31397
H         56.08644        47.93232         1.08697
H         57.23620        50.05589         1.20057
H         58.54197        52.22975         0.74793
H         59.72733        54.23683         0.82230
H         61.09798        56.48499         0.37480
H         62.20434        58.82219         1.14885
H         63.55268        60.86959         0.44755
H         64.74025        63.00782         0.43805
H         65.96537        65.16154         0.38561
H         67.17451        67.31969         0.35940
H         68.40678        69.45105         0.07061
H         69.62997        71.60003        -0.18465
H         69.59970        74.07450        -0.42876
