         429
 CSIRO Nanostructure Databank - Neutral Graphene Oxide Data Set
C          1.73138         1.95860        -2.68809
C          1.71564         3.36943        -2.75332
C          2.88283         1.27141        -2.36476
C          2.86326         4.12597        -2.50826
C          1.70079         6.34351        -2.77126
C          1.73294         7.76900        -2.83039
C          2.83597         5.58488        -2.55402
C          2.87258         8.51472        -2.57245
C          1.73234        10.73402        -2.83008
C          1.73341        12.12172        -2.71939
C          2.87082         9.97844        -2.48182
C          2.84674        12.81709        -2.22849
C          1.82287        15.11474        -2.82663
C          1.91863        16.46533        -2.84651
C          2.74085        14.30478        -1.93867
C          3.00082        17.18719        -2.19862
C          3.03703        18.60116        -2.17243
C          4.09351         1.97701        -2.09606
C          4.08678         3.41995        -2.17927
C          5.27383         1.28604        -1.76445
C          5.28058         4.10329        -1.90623
C          4.10718         6.32982        -2.42597
C          4.08525         7.80573        -2.20596
C          5.35405         5.56264        -2.08202
C          5.18816         8.45569        -1.72509
C          4.01160        10.66698        -2.00645
C          3.99774        12.07455        -1.84013
C          5.32948         9.95017        -1.84969
C          5.14522        12.72675        -1.22079
C          4.09281        14.98017        -1.83091
C          4.10761        16.46102        -1.68666
C          5.23024        14.20128        -1.28316
C          5.25127        17.11812        -1.22678
C          4.14015        19.26616        -1.66751
C          5.27554        18.54560        -1.19439
C          6.48489         1.96125        -1.48594
C          6.47458         3.41130        -1.54182
C          7.66983         1.27265        -1.12953
C          7.64933         4.13615        -1.27987
C          6.47715         6.27793        -1.46530
C          6.23564         7.67874        -0.96927
C          7.62089         5.56898        -1.13664
C          7.49359         8.43159        -0.64425
C          6.29831        10.58870        -0.86651
C          6.23269        12.03222        -0.70681
C          7.40382         9.86025        -0.45166
C          7.31023        12.76527        -0.01341
C          6.14635        14.94587        -0.32932
C          6.51186        16.33833        -0.88811
C          7.34403        14.12562         0.10925
C          7.44308        17.09807         0.02307
C          6.42247        19.21319        -0.70475
C          7.48684        18.50281        -0.08084
C          8.89116         1.94545        -0.89715
C          8.91265         3.41134        -1.10070
C         10.06749         1.29898        -0.48394
C         10.11311         4.18865        -0.57634
C          8.74821         6.27342        -0.54256
C          8.61560         7.68557        -0.28959
C          9.92686         5.60336        -0.20466
C          9.65805         8.30494         0.54661
C          8.62346        10.61953         0.01772
C          8.27638        11.91290         0.76996
C          9.56558         9.75188         0.83704
C          9.52794        12.62670         1.26984
C          8.36878        14.85528         0.93111
C          8.40216        16.37684         0.88462
C          9.57548        14.09155         1.46543
C          9.65600        17.13669         1.39988
C          8.64174        19.21893         0.37029
C          9.77180        18.55701         0.85343
C         11.24061         1.99954        -0.06333
C         11.23073         3.43431         0.01407
C         12.41108         1.31765         0.34812
C         12.31998         4.14135         0.53581
C         11.04500         6.27710         0.40475
C         10.95439         7.64188         0.73692
C         12.26609         5.57738         0.65206
C         12.10555         8.39040         1.09551
C         10.77463        10.44180         1.32117
C         10.52899        11.77960         1.73588
C         12.04504         9.81730         1.34683
C         12.37620        12.84156         1.73267
C         10.93105        14.90242         1.65008
C         10.93598        16.32810         1.05221
C         12.24615        14.23623         1.60777
C         12.19609        17.14142         1.30240
C         11.00145        19.22826         0.92233
C         12.23025        18.54191         1.18667
C         13.55752         2.00346         0.80613
C         13.51781         3.44993         0.93082
C         14.78547         1.33742         1.04794
C         14.64892         4.17448         1.31865
C         13.42062         6.30625         0.99955
C         13.36420         7.73349         1.09498
C         14.65112         5.60030         1.27503
C         14.57131         8.49169         1.18945
C         13.29847        10.55392         1.35123
C         13.28465        11.97116         1.10627
C         14.56852         9.88407         1.30618
C         15.02851        12.88196         2.47085
C         13.48761        14.99347         1.81976
C         13.45784        16.47308         1.64064
C         14.79857        14.27978         1.90131
C         14.72283        17.18036         1.28813
C         13.46530        19.28105         1.31089
C         14.72511        18.66028         1.38441
C         15.95635         2.02805         1.41879
C         15.87122         3.47448         1.85731
C         17.19329         1.38658         1.50152
C         17.15694         4.24831         1.65058
C         15.85824         6.31360         1.38723
C         15.82641         7.73447         1.01003
C         17.12367         5.64917         1.48512
C         17.08221         8.46753         0.70209
C         15.96232        10.55018         1.61102
C         16.05244        12.07849         1.69935
C         16.93757         9.99637         0.53055
C         17.16085        12.78034         1.33061
C         15.94298        14.96561         1.67109
C         15.99868        16.41234         1.33357
C         17.21225        14.21255         1.76612
C         17.26075        17.15636         1.55432
C         15.96725        19.31457         1.46576
C         17.22660        18.62076         1.57669
C         18.41450         2.10020         1.67613
C         18.39759         3.56788         1.67661
C         19.62187         1.41836         1.75982
C         19.60112         4.29602         1.65067
C         18.34925         6.40120         1.36291
C         18.35895         7.79573         1.06298
C         19.59281         5.71602         1.52055
C         19.57264         8.48758         0.90429
C         18.31919        10.69343         0.36184
C         18.36712        12.21086         0.66041
C         19.56401         9.86601         0.44802
C         19.63037        12.99502         0.81809
C         18.47118        14.98778         1.78107
C         18.44408        16.46949         1.70694
C         19.70033        14.30090         1.36100
C         19.71565        17.14722         1.79911
C         18.41632        19.30679         1.77389
C         19.72440        18.62935         2.09866
C         20.87980         2.09740         1.82653
C         20.91907         3.57470         1.50205
C         22.05496         1.41350         1.98142
C         22.07373         4.33313         2.14421
C         20.82377         6.45121         1.40258
C         20.82291         7.79425         1.04019
C         22.08372         5.80119         1.86013
C         22.13055         8.40450         0.54596
C         20.79087        10.40687         0.09490
C         20.82395        12.52308         0.25803
C         22.09828         9.91978         0.46269
C         22.09615        13.00953         0.62087
C         20.90591        15.02803         1.37318
C         20.89747        16.45148         1.66960
C         22.12722        14.34783         1.09790
C         22.20340        17.19107         1.87643
C         20.93267        19.30023         1.49228
C         22.12907        18.63336         1.39255
C         23.34674         2.10318         2.21193
C         23.37232         3.59029         2.34866
C         24.60975         1.31270         1.93897
C         24.69536         4.37204         2.32110
C         23.38463         6.48368         1.64655
C         23.37945         7.83468         1.18050
C         24.58796         5.78147         1.75818
C         24.57001         8.54523         1.04468
C         23.24802        10.70860         0.49394
C         23.28799        12.18353         0.51424
C         24.55524         9.91364         0.35728
C         24.49611        12.88673         0.67235
C         23.37099        15.05379         1.12136
C         23.40288        16.45614         1.32823
C         24.55164        14.31381         0.84619
C         24.57331        17.16160         1.01452
C         23.34600        19.29680         1.03326
C         24.57536        18.62385         0.93147
C         25.83036         2.16103         1.63458
C         25.83545         3.57315         1.69449
C         26.98695         1.46663         1.27198
C         27.02917         4.27199         1.37659
C         25.81500         6.45388         1.48941
C         25.81000         7.85878         1.24254
C         27.04254         5.71516         1.37403
C         27.07150         8.53200         1.16856
C         25.84067        10.70927         0.65373
C         25.74684        12.16513         0.97180
C         27.10329        10.00630         1.02629
C         27.02809        12.93373         1.17705
C         25.78447        15.03250         0.74567
C         25.74844        16.43979         0.68943
C         27.05406        14.34140         0.74317
C         26.93175        17.16367         0.21294
C         25.79291        19.30771         0.68758
C         27.00500        18.62942         0.39589
C         28.20512         2.13659         0.99194
C         28.21999         3.56798         1.04252
C         29.38524         1.42677         0.66930
C         29.44042         4.26735         0.76940
C         28.25739         6.39533         1.14231
C         28.26241         7.82281         1.17491
C         29.47247         5.68767         0.83803
C         29.57341         8.50952         1.23174
C         28.33314        10.74672         1.49298
C         28.34998        12.22868         1.34035
C         29.63109        10.00540         1.37608
C         29.59538        12.90492         0.90377
C         28.25177        14.96509         0.45246
C         28.22329        16.37875         0.03177
C         29.53988        14.27504         0.52973
C         29.47453        17.13188        -0.00671
C         28.23725        19.26331         0.22503
C         29.46606        18.53969        -0.00038
C         30.59995         2.10100         0.40367
C         30.62593         3.54071         0.45429
C         31.78789         1.40239         0.09164
C         31.83772         4.23638         0.18613
C         30.68487         6.38765         0.52892
C         30.75522         7.82602         0.69315
C         31.83850         5.66034         0.17905
C         31.92378         8.55231         0.52965
C         30.83741        10.73246         0.94201
C         30.79754        12.16645         0.77002
C         31.99203         9.99582         0.66358
C         31.99974        12.84634         0.40099
C         30.72946        14.94275         0.16445
C         30.69161        16.34708        -0.39318
C         31.96474        14.25194         0.15268
C         31.97720        17.10715        -0.22790
C         30.70335        19.23161        -0.15929
C         31.94447        18.54482        -0.26409
C         33.01016         2.08080        -0.14335
C         33.04504         3.51574        -0.08936
C         34.20040         1.36693        -0.42587
C         34.28872         4.20537        -0.26864
C         33.08053         6.37001        -0.15680
C         33.12415         7.86227         0.02138
C         34.34921         5.62273        -0.20783
C         34.45072         8.49180         0.36388
C         33.23262        10.68704         0.34843
C         33.22194        12.11785         0.24745
C         34.42872         9.98032         0.12439
C         34.42928        12.81579        -0.03560
C         33.19641        14.95418        -0.11034
C         33.18573        16.41064        -0.24050
C         34.39777        14.24718        -0.13921
C         34.41198        17.13208        -0.40173
C         33.16314        19.24928        -0.38195
C         34.39573        18.56259        -0.49655
C         35.43099         2.03308        -0.62183
C         35.48276         3.46374        -0.52209
C         36.62099         1.32333        -0.92956
C         36.72307         4.14428        -0.68762
C         35.58160         6.32312        -0.33333
C         35.62454         7.76475        -0.24342
C         36.77451         5.58325        -0.59568
C         36.79669         8.47373        -0.48332
C         35.62722        10.65472        -0.23146
C         35.63288        12.07902        -0.29027
C         36.82730         9.91657        -0.53607
C         36.81740        12.73896        -0.74472
C         35.67321        14.98202        -0.25732
C         35.65033        16.44062        -0.50941
C         36.90965        14.20538        -0.61522
C         36.83271        17.11932        -0.78546
C         35.62079        19.24910        -0.70105
C         36.82958        18.55438        -0.88029
C         37.84256         1.99272        -1.09035
C         37.90147         3.40781        -0.93825
C         39.03767         1.27507        -1.47392
C         39.24659         4.08462        -0.88011
C         38.01289         6.26095        -0.80822
C         38.04882         7.72096        -0.65146
C         39.19287         5.57166        -1.13619
C         39.29273         8.47057        -1.16040
C         37.96338        10.60237        -1.05999
C         37.90823        12.02450        -1.22508
C         39.14735         9.89825        -1.47388
C         38.93165        12.73998        -2.08535
C         38.06214        14.91873        -1.19698
C         38.16500        16.39330        -0.86041
C         39.08273        14.22304        -1.78298
C         39.09654        17.12021        -1.80713
C         38.04396        19.25942        -1.17044
C         39.18391        18.59284        -1.64182
C         40.19535         1.94391        -1.80001
C         40.30448         3.35496        -1.66070
C         41.41350         4.07087        -2.12582
C         40.35509         6.24714        -1.62997
C         40.35445         7.67573        -1.79048
C         41.45992         5.46398        -2.07685
C         41.32982         8.38338        -2.51653
C         40.23045        10.55060        -2.10231
C         40.25103        12.00659        -2.19020
C         41.30441         9.77190        -2.60798
C         41.39790        12.71012        -2.44582
C         40.30085        14.89262        -2.23532
C         40.25988        16.37115        -2.40568
C         41.40873        14.14273        -2.53700
C         41.45645        17.16170        -2.71924
C         40.34048        19.25252        -2.08818
C         41.45203        18.53062        -2.59121
O          9.95707         3.90244        -2.01391
O         13.38115        15.90350         3.00863
O         23.33752         2.73996         3.55701
O         20.78404        11.53884        -0.72370
O         18.20906        11.68477        -0.69186
O         15.33318        16.69901         0.03727
O         29.84189         9.13619         2.54263
O         26.85027        10.43896        -0.38767
O          7.71936        15.65086         1.99582
O         27.34641        16.69208        -1.11829
O         17.91337        14.42992         3.04914
O          5.18730        14.57169        -2.72975
O         28.36097        11.58311         2.67409
O         21.81698         5.25330         3.22609
O         10.02848        14.61682         2.75282
O         26.16566        12.60143         2.31235
O          5.07551         5.98526        -3.48874
O         36.65660        14.62343         0.79390
O         11.47473        12.27313         2.63764
O         39.03871        16.72456        -3.20196
O          9.00303         8.82190         1.80646
O         16.38836         7.80088        -0.41195
O         32.97627         7.32380        -1.31547
O         39.09681         8.16935         0.27028
O         14.55817        12.48739         3.52501
O          5.58670         7.44843         0.35723
H          6.28912         7.46998         1.04387
O         24.56976         9.58771        -1.07034
H         25.51810         9.60282        -1.35195
O         10.90575        16.07748        -0.38874
H         11.00165        16.93534        -0.85552
O         22.39544        17.27077         3.32426
H         21.64157        17.80748         3.67665
O         16.36082        10.06663         2.90538
H         15.80984        10.52382         3.58016
O         38.76620        16.47107         0.46449
H         38.18082        15.94444         1.06022
O         22.22518         7.95746        -0.85083
H         23.01032         8.41866        -1.23887
O         19.91236        18.74471         3.57143
H         19.14415        18.30563         3.99690
O          6.01220        10.14717        -3.15303
H          5.98204        11.10716        -3.35668
O         30.54143        16.14935        -1.85890
H         30.30563        17.01810        -2.24991
O         24.87230         0.46333         3.06564
H         24.70111         0.99548         3.87259
O          7.55227        11.49752         1.95888
H          7.37627        12.29011         2.50811
O         21.25159         3.63124         0.06833
H         20.51666         3.21091        -0.42700
O         34.58447         8.30182         1.81302
H         35.40109         8.75990         2.10476
O         14.11146        12.45274         0.12650
H         14.63756        11.71949        -0.27621
O          5.33101        15.14493         0.85393
H          5.93555        15.45725         1.57376
O          9.36270        11.02109        -1.17010
H          9.20452        10.36427        -1.88011
O         39.67680         3.96525         0.54212
H         39.08603         4.54349         1.07134
O         25.10164         4.58297         3.70321
H         24.63522         3.90250         4.24368
O         38.34959        12.67838        -3.43925
H         38.92272        13.21634        -4.02655
O         15.68022         3.42776         3.31974
H         14.87688         2.89208         3.49161
O          7.26404        16.15622        -2.12587
H          6.66189        15.68137        -2.75252
O          9.56004        17.29569         2.81772
H          9.31070        16.41792         3.19508
O         16.19370        10.26270        -0.68247
H         16.21144         9.43188        -1.21962
O          2.19124        14.39881        -0.58455
H          1.29862        13.99465        -0.59102
H          0.80359         1.40678        -2.89467
H          0.77034         3.86856        -3.00694
H          2.87959         0.17337        -2.30956
H          0.72566         5.85621        -2.91337
H          0.78168         8.27824        -3.03917
H          0.83146        10.23557        -3.21198
H          0.82672        12.67160        -3.00890
H          0.99807        14.62281        -3.36295
H          1.18138        17.05691        -3.41134
H          2.18226        19.16948        -2.56696
H          5.25435         0.18636        -1.72961
H          4.16078        20.36530        -1.64594
H          7.63562         0.17764        -1.02502
H          6.46504        20.31169        -0.73830
H         10.06916         0.20022        -0.41858
H          8.71291        20.29134         0.13112
H         12.44572         0.22079         0.26687
H         11.03421        20.30130         0.67890
H         14.85602         0.26157         0.82451
H         13.40631        20.37969         1.31505
H         17.24429         0.29570         1.35914
H         15.98651        20.41462         1.49874
H         19.61824         0.31856         1.80380
H         18.39259        20.40562         1.84170
H         22.04088         0.31962         2.10511
H         20.86850        20.36689         1.22678
H         24.42573         0.63949         1.05957
H         23.31499        20.38256         0.85205
H         26.95862         0.36789         1.23540
H         25.79421        20.40821         0.70840
H         29.35917         0.32766         0.63332
H         28.29224        20.35912         0.30735
H         31.76990         0.30336         0.04910
H         30.70287        20.33117        -0.16611
H         34.16662         0.26905        -0.48606
H         33.15120        20.34855        -0.41965
H         36.58087         0.22968        -1.04278
H         35.61557        20.34757        -0.76260
H         38.97859         0.18319        -1.58943
H         38.03895        20.35923        -1.12927
H         41.05282         1.38694        -2.20751
H         42.25367         3.52308        -2.57872
H         42.36059         5.96895        -2.45094
H         42.15437         7.84397        -3.00233
H         42.12087        10.27174        -3.14657
H         42.35325        12.18566        -2.58955
H         42.34534        14.63010        -2.84036
H         42.37784        16.64935        -3.03029
H         40.40057        20.34768        -2.01205
H         42.35752        19.09280        -2.86237
