         244
 CSIRO Nanostructure Databank - Neutral Graphene Oxide Data Set
C          1.35184         2.13684        -0.00482
C          1.31016         3.45437        -0.30788
C          2.56438         1.36991        -0.17733
C          2.49527         4.12598        -0.97376
C          1.29928         6.35322        -0.99222
C          1.26349         7.73846        -0.88176
C          2.49495         5.63388        -0.81307
C          2.43609         8.47053        -0.59503
C          1.25783        10.60757        -0.01188
C          1.26734        11.99840         0.18109
C          2.40746         9.91823        -0.39348
C          2.45005        12.76101         0.05243
C          1.28643        14.97181        -0.42138
C          1.26947        16.31085        -0.44595
C          2.39535        14.25233         0.32479
C          2.36647        17.12021         0.21833
C          2.49469        18.50433        -0.37364
C          3.75321         2.00289        -0.42733
C          3.79010         3.44654        -0.56437
C          5.03880         1.22972        -0.58298
C          4.97147         4.13318        -0.36199
C          3.68293         6.34650        -0.56933
C          3.65365         7.75472        -0.46480
C          4.97633         5.61530        -0.45016
C          4.85328         8.50092        -0.00071
C          3.63986        10.69195        -0.58457
C          3.64387        12.12928        -0.30623
C          4.99655         9.92723        -0.39317
C          4.91577        12.86231        -0.38147
C          3.70338        14.97648         0.09942
C          3.68505        16.37809         0.13786
C          4.92602        14.29743        -0.03528
C          4.89328        17.09038         0.18616
C          3.64810        19.18088        -0.31985
C          4.85860        18.59475         0.37081
C          6.25799         2.01510        -0.15413
C          6.20966         3.43558        -0.05498
C          7.44091         1.33824         0.09264
C          7.38504         4.12074         0.38374
C          6.17126         6.33423         0.09197
C          6.08914         7.78781         0.42771
C          7.30702         5.57015         0.68288
C          7.37322         8.52636         0.54356
C          6.21895        10.64779        -0.01849
C          6.25025        12.10184        -0.24702
C          7.35733         9.97989         0.43197
C          7.44538        12.85482         0.18000
C          6.15180        14.99672         0.11002
C          6.11086        16.40204         0.25550
C          7.41871        14.28016         0.23169
C          7.32817        17.18797         0.66651
C          6.15504        19.24188        -0.04821
C          7.33761        18.58043         0.06410
C          8.63625         2.02847         0.44515
C          8.58581         3.44864         0.62091
C          9.85760         1.33650         0.57682
C          9.79883         4.14848         1.22605
C          8.55228         6.35963         0.98384
C          8.52794         7.83272         0.78875
C          9.84294         5.64106         0.96674
C          9.79984         8.54156         1.16465
C          8.61472        10.69960         0.58564
C          8.62850        12.13955         0.43579
C          9.80564        10.01544         0.82704
C          9.87406        12.84687         0.52444
C          8.61879        14.99491         0.45961
C          8.61581        16.43380         0.48721
C          9.87439        14.28749         0.50098
C          9.79539        17.15182         0.42274
C          8.61473        19.18410        -0.25796
C          9.79860        18.53269        -0.01825
C         11.09074         2.04392         0.66947
C         11.09227         3.46133         0.85566
C         12.30869         1.36169         0.46720
C         12.29852         4.18780         0.74575
C         11.03431         6.32256         0.83992
C         11.02756         7.82311         0.57948
C         12.29135         5.62240         0.77548
C         12.32902         8.52079         1.03529
C         11.07821        10.69245         0.71154
C         11.08558        12.14093         0.57880
C         12.27464         9.98093         0.63783
C         12.34038        12.85340         0.60241
C         11.09193        14.98637         0.56829
C         11.07144        16.45540         0.67616
C         12.34917        14.30964         0.61864
C         12.35657        17.23370         0.67878
C         11.12176        19.10844        -0.48819
C         12.28876        18.75409         0.46274
C         13.53655         2.05671         0.38839
C         13.53781         3.48976         0.52165
C         14.74236         1.36730         0.11987
C         14.76423         4.19979         0.44049
C         13.52426         6.35015         0.61846
C         13.53469         7.75000         0.54988
C         14.77092         5.62601         0.51635
C         14.79624         8.45708         0.35148
C         13.46383        10.69958         0.03141
C         13.52516        12.12964         0.50122
C         14.79588         9.93527         0.14340
C         14.80827        12.79410         0.61081
C         13.55719        15.03620         0.49168
C         13.59287        16.47401         0.36234
C         14.84036        14.32740         0.57218
C         14.75435        17.15071         0.03959
C         13.59366        19.32842        -0.01644
C         14.76575        18.60364        -0.11850
C         15.96957         2.05646         0.01012
C         15.99141         3.47772         0.21836
C         17.18215         1.38852        -0.30076
C         17.22916         4.15423         0.19871
C         16.00903         6.33867         0.56868
C         16.06153         7.73536         0.56785
C         17.26382         5.56810         0.60097
C         17.31094         8.45992         0.52695
C         16.05570        10.68931         0.38655
C         16.05720        12.04546         0.36036
C         17.32314         9.95134         0.77454
C         17.28714        12.78165        -0.11508
C         16.09320        14.98358         0.14048
C         16.01358        16.41334        -0.34307
C         17.27829        14.29134         0.05749
C         17.25461        17.19429         0.02891
C         16.00391        19.28083        -0.39624
C         17.24792        18.63882        -0.30803
C         18.38888         2.09008        -0.43445
C         18.42792         3.49779        -0.15776
C         19.59165         1.43282        -0.86790
C         19.64957         4.24024        -0.37490
C         18.56459         6.32777         0.44410
C         18.50974         7.79903         0.41075
C         19.71613         5.63856        -0.16089
C         19.85037         8.47473         0.52697
C         18.61578        10.64548         0.36727
C         18.59706        12.16706         0.41206
C         19.79245         9.98123         0.38599
C         19.81120        12.79502        -0.29878
C         18.55587        14.97490        -0.08868
C         18.55690        16.45102         0.07699
C         19.76410        14.30937        -0.17540
C         19.78957        17.19666        -0.22474
C         18.47555        19.29812        -0.46239
C         19.72800        18.60582        -0.43320
C         20.73439         2.14748        -1.11871
C         20.78080         3.56466        -0.92339
C         21.92056         4.32612        -1.29637
C         20.83878         6.40776        -0.59150
C         20.86636         7.82860        -0.40196
C         21.93776         5.69945        -1.17222
C         21.85662         8.65874        -1.00341
C         21.15206        10.66370         0.34423
C         21.09701        12.16926         0.17554
C         21.98327         9.99563        -0.73493
C         22.21324        12.92914         0.32433
C         21.02420        15.03905        -0.14111
C         21.01235        16.50012        -0.31809
C         22.19295        14.35061         0.10749
C         22.18816        17.23016        -0.58564
C         20.93648        19.30490        -0.68370
C         22.14314        18.61906        -0.75262
O         17.84685        16.88452         1.31315
O          7.61732         5.91041         2.07283
O          4.46735        10.22444        -1.70421
O          5.11191         8.21680         1.43358
O         14.97228        13.59406         1.84107
O          5.74000        12.54756        -1.54880
O          6.04023         6.12077        -1.35047
O         18.14084         5.80052         1.76315
O         11.74888        16.87152         1.95721
O         14.94234         9.10149        -1.07925
O         20.29463         8.20431         1.91287
H         20.18175         7.24156         2.07629
O          2.05645        17.26674         1.63796
H          2.02322        16.34533         2.00036
O         18.70753        12.53590         1.80195
H         18.08422        11.96534         2.31109
O         17.15361        12.60860        -1.55835
H         18.05508        12.62310        -1.96604
O         12.00222        19.39685         1.72462
H         11.75356        18.67803         2.35649
O         17.32201        10.08251         2.25035
H         18.04467         9.51215         2.59554
O          4.69582        18.81402         1.81421
H          3.81915        18.42668         2.05446
O         10.92606         7.99515        -0.85254
H         11.74746         7.65134        -1.26314
O         16.03768        16.35107        -1.81018
H         15.26178        15.83079        -2.10751
O         12.48007         8.50090         2.48267
H         11.58551         8.58726         2.89433
O          2.33431         3.88870        -2.41305
H          2.29167         2.91735        -2.54175
O         19.75676        12.45435        -1.72964
H         20.50013        12.91960        -2.16844
O         13.13976        10.79874        -1.39496
H         13.64048        10.06897        -1.83892
O         11.42890        18.53461        -1.76858
H         10.68512        18.71868        -2.37811
O         21.83989        10.42136         1.60094
H         21.57871         9.52394         1.91913
O          7.19719        17.37831         2.11538
H          6.38482        17.92692         2.25826
O          9.63776         4.00439         2.68434
H          8.86030         4.56322         2.92543
O          9.85868         8.42480         2.62535
H          9.01040         8.75183         2.99333
O          4.97913        -0.02910         0.09329
H          4.93052         0.14258         1.05584
O          2.11336        14.42157         1.76033
H          1.31450        13.89216         1.96999
H          0.46059         1.62810         0.39105
H          0.37308         4.01710        -0.18892
H          2.54477         0.28064        -0.03302
H          0.37366         5.81490        -1.23796
H          0.31235         8.26784        -1.03216
H          0.31712        10.05926         0.13857
H          0.32914        12.50380         0.45308
H          0.48461        14.38611        -0.89739
H          0.44863        16.84936        -0.94559
H          1.60462        18.95223        -0.84321
H          5.15579         0.98967        -1.67978
H          3.72042        20.19747        -0.73721
H          7.46222         0.24261        -0.00232
H          6.13352        20.29099        -0.38374
H          9.87670         0.24551         0.43943
H          8.62047        20.19321        -0.69966
H         12.29787         0.27071         0.32567
H         11.03985        20.22654        -0.58376
H         14.71839         0.27601        -0.01643
H         13.62687        20.41966        -0.16075
H         17.16482         0.30274        -0.47873
H         15.97013        20.36297        -0.59556
H         19.56685         0.34704        -1.04103
H         18.48198        20.38033        -0.66410
H         21.63314         1.63871        -1.49723
H         22.79320         3.80488        -1.71655
H         22.83455         6.25100        -1.48543
H         22.54659         8.20711        -1.73312
H         22.78138        10.57406        -1.22443
H         23.16000        12.45748         0.62355
H         23.14385        14.89372         0.19610
H         23.15441        16.71373        -0.66734
H         20.90779        20.39324        -0.83615
H         23.07327        19.16910        -0.95305
