         640
 CSIRO Nanostructure Databank - Neutral Graphene Oxide Data Set
C         23.27868        27.03271        -0.65405
C         23.25667        28.41858        -0.44829
C         23.24569        31.32280         0.03609
C         23.26410        32.75114         0.21668
C         23.23147        35.71783         0.57560
C         23.27780        37.06737         0.70596
C         23.30836        39.97015         1.05273
C         23.28012        41.37433         1.10357
C         23.18399        44.30531         1.24791
C         23.16078        45.68368         1.27337
C         25.58629        24.31258        -1.65924
C         24.47709        24.94960        -1.22272
C         25.64302        27.15123        -1.27537
C         24.44680        26.38701        -1.05752
C         25.61862        28.57122        -1.06630
C         24.39701        29.20773        -0.63862
C         25.57232        31.45385        -0.66766
C         24.36715        30.63736        -0.35798
C         25.74372        32.77195         0.06546
C         24.41213        33.48629         0.17407
C         25.77043        35.67997         0.38576
C         24.45624        34.91797         0.54950
C         25.71821        37.15615         0.38080
C         24.51338        37.81309         0.66808
C         25.72582        39.96878         0.71967
C         24.50052        39.25263         0.82499
C         25.76449        41.40716         1.16645
C         24.43868        42.13916         1.07757
C         25.60996        44.33422         1.01075
C         24.40865        43.58889         1.11280
C         25.59511        45.75393         0.98217
C         24.35449        46.43692         1.13103
C         25.48176        48.59613         0.96429
C         24.33077        47.86479         1.12196
C         28.17366        22.88622        -2.06611
C         28.10869        24.34711        -2.28648
C         26.80405        25.06661        -2.01619
C         28.06815        27.22060        -1.68579
C         26.84019        26.50681        -1.66881
C         28.04488        28.64166        -1.47389
C         26.81660        29.30256        -1.26000
C         28.06972        31.52804        -1.22039
C         26.79787        30.77330        -1.17872
C         28.00388        32.94997        -1.05885
C         26.88909        33.61133        -0.48576
C         28.10111        35.79573        -0.50489
C         26.92653        35.00155        -0.24144
C         28.10205        37.22768        -0.27768
C         26.91967        37.89562         0.12402
C         28.11905        40.08151         0.10030
C         26.91219        39.32594         0.32561
C         28.08966        41.52560         0.18004
C         26.90332        42.17491         0.56992
C         28.11599        44.41063         0.56537
C         26.89104        43.61788         0.85863
C         28.02737        45.88538         0.50919
C         26.80035        46.53110         0.77177
C         27.96532        48.70932         0.64111
C         26.75058        47.96050         0.78072
C         27.98892        50.14072         0.70254
C         30.49459        23.04532        -1.28679
C         29.28451        22.29643        -1.57216
C         30.55118        24.39037        -1.55728
C         29.43190        25.11111        -2.28007
C         30.52588        27.27127        -1.64505
C         29.32518        26.55733        -1.82444
C         30.51123        28.69906        -1.57689
C         29.27238        29.39075        -1.53950
C         30.49281        31.52194        -1.99929
C         29.24709        30.82666        -1.49885
C         30.44760        33.03649        -1.79957
C         29.18816        33.75354        -1.39606
C         30.49667        35.89701        -1.13949
C         29.26858        35.16149        -0.95692
C         30.48695        37.31473        -0.88032
C         29.31801        37.97363        -0.49065
C         30.45944        40.19771        -0.60226
C         29.30933        39.42658        -0.29812
C         30.45463        41.61963        -0.51670
C         29.26887        42.27574        -0.14962
C         30.50187        44.48519        -0.08862
C         29.18900        43.77666        -0.28622
C         30.47888        45.90904         0.17205
C         29.22636        46.60832         0.34001
C         30.44121        48.75990         0.46230
C         29.20845        48.03217         0.46941
C         30.43466        50.19232         0.57301
C         29.16209        50.84728         0.65750
C         32.94289        20.24266        -0.57695
C         31.79007        20.88272        -0.86600
C         32.97040        23.06996        -0.79642
C         31.64969        22.35896        -0.58584
C         32.98222        24.42418        -1.08100
C         31.76761        25.15314        -1.35027
C         33.01360        27.29344        -1.30911
C         31.78143        26.54881        -1.48112
C         33.00280        28.72109        -1.36196
C         31.76712        29.42879        -1.50808
C         33.00288        31.53853        -1.54175
C         31.77289        30.83215        -1.57741
C         32.98679        33.01628        -1.37353
C         31.70131        33.75863        -1.44189
C         32.94056        35.92640        -1.92180
C         31.67466        35.23330        -1.50228
C         32.91657        37.39326        -1.60269
C         31.80701        38.04790        -0.83313
C         32.84410        40.34810        -1.52767
C         31.63806        39.51998        -1.17810
C         32.85068        41.78780        -1.16727
C         31.68817        42.39202        -0.73991
C         32.93235        44.52334        -0.29998
C         31.68915        43.81489        -0.37742
C         32.96661        45.87283         0.37798
C         31.67537        46.63321         0.25786
C         32.91256        48.78345         0.42852
C         31.67421        48.05465         0.38189
C         32.90589        50.19929         0.63240
C         31.65627        50.90641         0.64556
C         32.85544        53.03756         0.85576
C         31.70833        52.35637         0.63439
C         35.22950        18.90428         0.71957
C         35.25899        20.32243         0.41303
C         34.13354        20.96720        -0.16406
C         35.39691        23.06384        -0.23541
C         34.17924        22.36714        -0.42481
C         35.52584        24.44267        -0.70852
C         34.25624        25.15402        -1.18084
C         35.47873        27.32305        -1.01841
C         34.24181        26.61950        -1.14495
C         35.47280        28.71735        -1.18637
C         34.24642        29.43126        -1.35742
C         35.51066        31.62210        -1.68473
C         34.21935        30.85952        -1.46804
C         35.46433        33.09707        -1.31338
C         34.25227        33.78601        -1.39660
C         35.41748        35.91001        -1.29891
C         34.21556        35.20599        -1.43850
C         35.45274        37.36872        -1.54767
C         34.15232        38.13107        -1.78928
C         35.41346        40.35986        -1.33204
C         34.16003        39.64085        -1.69433
C         35.39449        41.80331        -1.00962
C         34.13583        42.57844        -1.37676
C         35.34809        44.64073        -0.62221
C         34.12531        43.92901        -0.70333
C         35.35244        46.02918        -0.34178
C         34.17527        46.69376         0.01821
C         35.37460        48.85600         0.25179
C         34.15273        48.10910         0.22607
C         35.36495        50.24858         0.60232
C         34.13162        50.90578         0.79209
C         35.39560        53.07732         1.13733
C         34.09817        52.32105         1.32100
C         35.42613        54.49758         1.26569
C         37.58103        18.91212         1.40118
C         36.33034        18.23541         1.16674
C         37.49652        20.41240         1.56802
C         36.42350        21.06662         0.72446
C         37.66755        23.24163         0.73524
C         36.50472        22.44294         0.39963
C         37.75933        24.60444         0.39045
C         36.67129        25.26213        -0.28307
C         37.90520        27.37205        -0.31977
C         36.69827        26.62634        -0.59473
C         37.97810        28.78735        -0.67576
C         36.78879        29.43515        -1.36785
C         37.96775        31.66963        -1.18672
C         36.66910        30.91693        -0.96433
C         37.93870        33.12949        -1.01854
C         36.68100        33.81618        -1.12270
C         37.89655        35.97208        -0.93616
C         36.65350        35.23853        -1.07452
C         37.91020        37.38879        -0.89993
C         36.61867        38.10433        -0.96874
C         37.88682        40.32033        -0.74734
C         36.60534        39.59046        -0.86369
C         37.85912        41.72391        -0.70044
C         36.58689        42.44389        -0.82157
C         37.81760        44.56247        -0.31907
C         36.62903        43.94639        -1.01948
C         37.81768        46.03321        -0.09748
C         36.61954        46.81785        -0.57513
C         37.83001        48.86683         0.21803
C         36.60907        48.20140         0.02638
C         37.83581        50.26872         0.52941
C         36.61213        50.95731         0.70759
C         37.86453        53.06536         1.06287
C         36.61997        52.37589         0.98002
C         37.90038        54.48594         1.57640
C         36.59503        55.19577         1.38091
C         39.95789        16.21726         2.36087
C         38.84121        16.81377         1.83388
C         40.08489        18.97022         1.70263
C         38.75636        18.24330         1.68295
C         40.00624        20.47593         1.73243
C         38.82543        21.12313         1.50873
C         40.12265        23.33848         1.52154
C         38.77419        22.59598         1.45440
C         40.16263        24.71945         1.03976
C         38.97647        25.35917         0.62581
C         40.19630        27.57657         0.69996
C         39.00452        26.74646         0.26827
C         40.44269        28.74953        -0.24298
C         39.15050        29.48172        -0.55205
C         40.39755        31.69878        -0.44056
C         39.24519        30.91885        -0.90571
C         40.36253        33.10383        -0.51279
C         39.14079        33.82231        -0.80970
C         40.33548        35.98921        -0.62042
C         39.12258        35.26289        -0.78110
C         40.33754        37.41784        -0.61321
C         39.10553        38.12732        -0.72421
C         40.32079        40.28853        -0.49180
C         39.10058        39.57994        -0.65423
C         40.32111        41.71775        -0.43058
C         39.09349        42.43876        -0.52746
C         40.30252        44.56568        -0.16874
C         39.10759        43.85250        -0.36535
C         40.30730        46.00963        -0.01351
C         39.10293        46.74367        -0.00061
C         40.31572        48.85203         0.25562
C         39.08834        48.15196         0.12466
C         40.31556        50.27259         0.45265
C         39.08266        50.97196         0.60370
C         40.33636        53.09056         0.85692
C         39.08662        52.38109         0.85057
C         40.34560        54.52708         0.96741
C         39.12474        55.24341         1.11886
C         40.29089        57.36450         0.81353
C         39.12519        56.65557         0.90805
C         42.18949        16.35589         3.37416
C         41.09114        16.96731         2.81686
C         42.35511        19.16879         2.72936
C         40.99192        18.48747         2.82725
C         42.49635        20.41367         2.13907
C         41.28975        21.16429         1.79428
C         42.63239        23.22896         1.44895
C         41.36126        22.54125         1.58700
C         42.64058        24.65837         1.25232
C         41.43435        25.39568         1.05320
C         42.69529        27.50460         0.96285
C         41.48126        26.79619         0.86478
C         42.72278        28.95676         0.84339
C         41.55438        29.62561         0.30566
C         42.54342        31.83729         0.83368
C         41.50698        31.00261         0.14939
C         42.74833        33.19337         0.20616
C         41.57082        33.86735        -0.27517
C         42.82006        35.99758        -0.45955
C         41.55732        35.25912        -0.44799
C         42.79495        37.45979        -0.28111
C         41.56439        38.15130        -0.42407
C         42.77940        40.28247        -0.16594
C         41.55813        39.57268        -0.35445
C         42.78704        41.72107        -0.16778
C         41.54594        42.43499        -0.26219
C         42.77537        44.57128        -0.03913
C         41.54433        43.85397        -0.15886
C         42.78064        45.99486         0.05741
C         41.54202        46.71338         0.08222
C         42.78632        48.84197         0.28039
C         41.54628        48.13325         0.20706
C         42.78925        50.26401         0.39568
C         41.55287        50.97238         0.51209
C         42.79927        53.10487         0.60557
C         41.55784        52.39480         0.67079
C         42.79879        54.53586         0.66846
C         41.57482        55.22633         0.86103
C         42.80772        57.38522         0.59399
C         41.59501        56.70317         1.15419
C         43.29878        17.14207         3.81374
C         45.41743        19.59988         3.02823
C         43.39208        18.46622         3.44668
C         45.14395        20.43886         1.97105
C         43.78638        20.97778         1.53243
C         45.08686        23.18368         1.27592
C         43.83303        22.50941         1.49239
C         45.10644        24.61800         1.18385
C         43.88386        25.35238         1.20310
C         45.16361        27.46580         1.22412
C         43.91172        26.77880         1.14629
C         45.16631        28.92889         1.63504
C         43.88276        29.68138         1.19752
C         44.87135        31.95335         1.53340
C         43.82849        31.10567         1.14048
C         45.11755        33.23988         0.96355
C         43.96611        33.84978         0.32984
C         45.26930        35.96186         0.34182
C         44.09439        35.22841        -0.13575
C         45.16607        37.40557         0.48875
C         43.96995        38.14994         0.05083
C         45.23429        40.28791         0.19917
C         43.98820        39.57074         0.06757
C         45.24999        41.70751         0.03904
C         44.00548        42.42550        -0.08266
C         45.23412        44.57971        -0.02121
C         44.01398        43.86418        -0.05844
C         45.24680        45.98600         0.08984
C         44.01080        46.70187         0.13550
C         45.25539        48.83631         0.27076
C         44.01873        48.12957         0.22965
C         45.26198        50.25991         0.33746
C         44.02630        50.97206         0.40455
C         45.26451        53.11652         0.41459
C         44.02830        52.40115         0.47101
C         45.25685        54.54828         0.40659
C         44.02184        55.25748         0.49875
C         43.94807        56.69784         0.35586
C         47.81259        19.45053         2.56414
C         46.71320        19.06808         3.31489
C         47.67247        20.44926         1.59483
C         46.32068        20.96355         1.17117
C         47.52153        23.17119         0.86013
C         46.30930        22.48319         1.13836
C         47.54223        24.59025         0.79598
C         46.33312        25.31879         1.00417
C         47.68424        27.46148         1.08879
C         46.34853        26.75188         1.07883
C         47.54985        28.86021         0.46714
C         46.47168        29.61104         1.20576
C         47.79193        31.73632         1.12417
C         46.72961        30.88767         1.60417
C         47.68624        33.11830         0.93895
C         46.41083        33.83979         0.88783
C         47.69679        36.00124         0.63929
C         46.44262        35.27304         0.65134
C         47.71433        37.40026         0.53598
C         46.47598        38.17096         0.67002
C         47.69388        40.28205         0.26314
C         46.46106        39.60339         0.35072
C         47.70067        41.70053         0.13533
C         46.47887        42.39793         0.03331
C         47.74583        44.56061         0.19941
C         46.51964        43.85969        -0.31352
C         47.72923        45.98331         0.30180
C         46.49162        46.70107         0.18189
C         47.73174        48.82677         0.33352
C         46.49449        48.11623         0.26151
C         47.73689        50.25065         0.33756
C         46.50236        50.96963         0.34093
C         47.74128        53.10693         0.30788
C         46.50411        52.40123         0.35429
C         47.70172        54.52932         0.29308
C         46.51259        55.22216         0.33513
C         50.04378        20.36248         0.83334
C         48.82048        21.06345         0.99485
C         49.94313        23.12736         0.24980
C         48.75614        22.44346         0.65601
C         49.91492        24.53067         0.07078
C         48.76270        25.27833         0.42353
C         49.99063        27.39636         0.02477
C         48.80262        26.69183         0.42478
C         50.02255        28.86454         0.13946
C         48.89871        29.56303         0.49230
C         50.17612        31.72485         0.32859
C         49.08017        30.97344         1.01463
C         50.12708        33.13916         0.27357
C         48.91283        33.84538         0.57397
C         50.11864        35.96040         0.12524
C         48.91796        35.25564         0.47890
C         50.12506        37.40219         0.08672
C         48.92867        38.11701         0.29387
C         50.15111        40.25514         0.14936
C         48.92988        39.55202         0.25334
C         50.16813        41.69169         0.16708
C         48.95015        42.40810         0.15797
C         50.20284        44.51012         0.46284
C         48.95342        43.83488         0.28704
C         50.15219        45.93897         0.96887
C         48.93313        46.69102         0.51383
C         50.21472        48.79869         0.47407
C         48.96452        48.10271         0.44936
C         50.22163        50.21953         0.35904
C         48.98446        50.95146         0.33310
C         50.24138        53.03898         0.22913
C         48.98983        52.37701         0.28704
C         51.17406        21.00630         0.36990
C         52.42025        23.11009        -0.08983
C         51.18132        22.40012         0.11714
C         52.42509        24.52934        -0.22722
C         51.10486        25.21127        -0.55226
C         52.39896        27.39558        -0.76329
C         51.12569        26.70425        -0.35878
C         52.42228        28.87837        -0.48467
C         51.28040        29.56725        -0.10546
C         52.49077        31.71683        -0.48679
C         51.31323        31.01139        -0.07242
C         52.49314        33.12588        -0.52848
C         51.30197        33.84371        -0.16855
C         52.43639        35.99178        -0.84692
C         51.28247        35.25286        -0.22285
C         52.55242        37.41302        -0.37378
C         51.35398        38.11634        -0.09082
C         52.61573        40.23606        -0.02384
C         51.37653        39.53561         0.02514
C         52.64054        41.66343         0.08597
C         51.41073        42.39621         0.16511
C         52.68433        44.60450         0.14465
C         51.40190        43.81950         0.30644
C         52.68472        45.86461         1.05063
C         51.44294        46.68831         0.78945
C         52.72349        48.77894         0.44078
C         51.45955        48.05718         0.58811
C         52.71211        50.18287         0.22779
C         51.46161        50.92277         0.26639
C         51.43313        52.33296         0.20318
C         54.85941        23.13108        -0.14844
C         53.67205        22.44053        -0.04491
C         54.88247        24.54877        -0.22637
C         53.63157        25.23706        -0.24490
C         54.89193        27.41685        -0.56511
C         53.62198        26.74241        -0.09796
C         54.88065        28.81586        -0.80445
C         53.66078        29.56649        -0.69207
C         54.89901        31.67812        -1.08335
C         53.69227        30.98457        -0.75744
C         54.91705        33.11389        -1.17991
C         53.71373        33.83202        -0.87320
C         54.96197        35.93735        -1.01231
C         53.73839        35.23639        -0.85350
C         55.00520        37.35475        -0.68773
C         53.78365        38.07893        -0.39856
C         55.07407        40.17611        -0.11774
C         53.82796        39.49676        -0.16551
C         55.11462        41.59385         0.08258
C         53.89295        42.34328         0.14955
C         55.16927        44.40959         0.39702
C         53.94184        43.76485         0.29884
C         55.23813        45.87552         0.60485
C         53.98593        46.65418         0.87274
C         55.17308        48.73090         0.14081
C         53.95785        48.08060         0.47027
C         55.12945        50.12507        -0.09837
C         53.94454        50.83315        -0.01958
C         57.37959        24.61076        -0.33598
C         56.12217        25.27342        -0.36153
C         57.32349        27.37701        -0.91171
C         56.10065        26.69021        -0.60749
C         57.31469        28.77489        -1.19031
C         56.09158        29.51108        -1.09806
C         57.27603        31.59440        -1.72733
C         56.09150        30.92627        -1.27635
C         57.22665        32.99352        -2.03915
C         56.08968        33.81519        -1.61092
C         57.31401        36.08210        -1.68607
C         56.12777        35.25044        -1.47805
C         57.42263        37.35505        -1.05106
C         56.23053        38.01913        -0.58178
C         57.52521        40.09735        -0.17094
C         56.29059        39.43501        -0.25968
C         57.59036        41.51712        -0.01088
C         56.36527        42.26158         0.12913
C         57.62002        44.39190         0.12199
C         56.40471        43.68976         0.25530
C         57.61818        45.81398        -0.07829
C         56.43500        46.57704         0.11413
C         57.62936        48.61116        -0.43251
C         56.42408        47.97983        -0.03302
C         58.55632        25.27608        -0.60617
C         59.75078        27.35348        -1.25318
C         58.55436        26.66399        -0.92871
C         59.72645        28.69495        -1.58586
C         58.51648        29.43412        -1.57077
C         59.55244        31.42555        -2.62730
C         58.46315        30.82965        -1.96023
C         59.43763        32.71806        -3.11803
C         58.29276        33.47209        -2.83246
C         59.55805        36.48408        -2.63646
C         58.38101        35.74629        -2.55276
C         59.72707        37.60451        -1.81036
C         58.66168        38.05560        -1.03791
C         60.03433        40.05212        -0.24963
C         58.77397        39.25145        -0.11259
C         60.03933        41.41123        -0.13809
C         58.84056        42.17926        -0.01255
C         60.01309        44.35253        -0.59732
C         58.94149        43.67000         0.22318
C         59.96177        45.67691        -0.86004
C         58.80003        46.47582        -0.51962
C         58.77939        47.87179        -0.68795
O         35.20909        24.59272        -2.13982
O         27.93235        43.90948         1.92318
O         37.51798        45.11810         1.01121
O         35.02637        37.68455        -2.90758
O         45.64337        37.83759         1.82186
O         32.22315        33.31857        -0.11088
O         54.90109        46.36159         1.98915
O         44.46381        19.19195         3.96670
O         45.80008        31.49678         2.47204
O         43.73539        35.52530        -1.52791
O         25.36936        35.11634         1.70098
O         35.01659        40.19979        -2.75362
O         38.81861        31.22534        -2.30116
O         29.65427        33.66392        -2.83723
O         27.26487        24.75973        -3.40697
O         36.27608        38.76411         0.31739
O         31.88140        39.92148        -2.56147
O         58.21060        34.70941        -3.47941
O         39.22578        23.22946         2.68960
O         25.82548        31.44980        -2.10028
O         40.75781        18.60297         0.46691
H         40.26875        18.99885        -0.28346
O         59.37853        43.81011         1.63570
H         59.39133        44.77069         1.83616
O         40.91149        28.19233        -1.50081
H         41.00129        28.92495        -2.14551
O         37.03562        20.61151         2.95528
H         36.24213        20.04833         3.07819
O         26.12923        32.42896         1.43132
H         26.04787        33.26281         1.95612
O         41.71476        56.81756         2.63288
H         40.94115        56.34768         3.01449
O         38.06493        54.37101         3.05828
H         37.30708        53.84078         3.38838
O         52.58285        27.21536        -2.20668
H         51.95044        27.80852        -2.66498
O         35.75636        31.62600        -3.11129
H         36.01732        30.70433        -3.36833
O         31.34315        22.47342         0.85347
H         32.07823        22.04003         1.33773
O         33.01365        35.79127        -3.38666
H         33.74875        36.38085        -3.68333
O         46.65231        43.90046        -1.79760
H         45.85584        43.46328        -2.16866
O         49.95889        45.79718         2.42837
H         50.83646        45.52274         2.79634
O         52.70565        45.11659        -1.22196
H         52.62911        44.35443        -1.83371
O         46.18798        20.51975        -0.24215
H         46.90420        20.95804        -0.75078
O         40.36633        18.85781         4.07893
H         40.92739        18.52370         4.80928
O         47.16580        28.65938        -0.91795
H         47.08566        29.53522        -1.34899
O         43.57035        20.59238         0.13409
H         44.45297        20.55851        -0.31387
O         39.86193        28.15030         1.99798
H         39.66849        27.41151         2.61284
O         29.86179        25.18765        -3.67375
H         29.04614        25.33814        -4.20447
O         58.81505        38.67965         1.24958
H         58.87365        39.43225         1.87619
O         48.08601        27.67281         2.46853
H         48.07561        26.80807         2.92839
O         30.46146        31.30921        -3.44745
H         29.87387        32.00921        -3.81919
O         37.05603        29.33761        -2.79833
H         37.90469        29.82487        -2.96408
O         36.39949        30.93215         0.45558
H         36.13494        31.83994         0.71564
O         26.07870        41.35090         2.62112
H         26.46007        42.22082         2.87394
O         34.25769        42.83919        -2.81849
H         34.38301        41.95276        -3.24392
O         50.95331        25.00181        -2.01092
H         51.65944        25.55051        -2.43432
O         41.97734        32.13583         2.17246
H         41.75029        31.27656         2.58954
O         52.62191        45.38715         2.41797
H         53.52091        45.54790         2.80518
O         36.81446        44.12800        -2.45045
H         35.99164        43.78730        -2.88320
O         28.76042        44.04266        -1.66781
H         29.44201        43.67230        -2.26841
O         53.48238        27.02190         1.32619
H         54.26548        26.65233         1.78510
O         49.53871        30.79573         2.41074
H         49.67372        31.68993         2.79036
O         52.07290        36.10021        -2.28303
H         52.80640        36.57256        -2.73207
O         45.13076        28.90595         3.08963
H         45.30336        29.82751         3.39313
O         33.95795        52.19301         2.79287
H         33.15181        51.65765         2.95696
O         36.79088        46.99705        -2.01243
H         35.98083        47.42091        -2.36434
O         32.23098        38.06365         0.58401
H         32.18559        37.14416         0.92388
O         33.11039        45.58443         1.83048
H         33.99241        45.17264         1.95719
H         22.36667        26.44369        -0.48098
H         22.31845        28.88078        -0.11320
H         22.29111        30.80585         0.20365
H         22.30131        33.24067         0.42357
H         22.26047        35.21555         0.46538
H         22.32780        37.61501         0.75721
H         22.34876        39.44288         1.12534
H         22.29475        41.85868         1.15093
H         22.23733        43.75926         1.35259
H         22.20552        46.21501         1.39333
H         25.56965        23.22619        -1.81873
H         23.56320        24.38161        -0.99421
H         25.41607        49.69234         0.96990
H         23.36579        48.37731         1.24668
H         27.28468        22.28214        -2.29300
H         27.04665        50.69645         0.80045
H         29.26672        21.21489        -1.38367
H         29.12093        51.94284         0.72581
H         32.99995        19.15181        -0.70184
H         30.92237        20.29561        -1.19658
H         32.84079        54.13574         0.81611
H         30.79511        52.91646         0.38649
H         34.30516        18.34074         0.53602
H         34.47894        55.05553         1.28085
H         36.27227        17.14550         1.29626
H         36.55127        56.28347         1.53141
H         39.99045        15.12140         2.46388
H         37.98017        16.18478         1.56693
H         40.26871        58.45522         0.67462
H         38.16775        57.18690         0.80761
H         42.22551        15.26151         3.47978
H         42.77972        58.47767         0.46624
H         44.11215        16.67768         4.38571
H         44.83767        57.24168         0.00688
H         48.80963        19.05569         2.80592
H         46.81616        18.36491         4.15079
H         48.63753        55.10264         0.25506
H         46.54228        56.31990         0.33646
H         50.08275        19.28694         1.05443
H         50.28529        54.13539         0.19346
H         52.09132        20.41709         0.24153
H         52.37104        52.90126         0.14900
H         55.79802        22.56198        -0.15202
H         53.71246        21.34743         0.04648
H         56.04906        50.67308        -0.34091
H         53.97164        51.91653        -0.19479
H         57.42693        23.53770        -0.10774
H         57.66959        49.70028        -0.56374
H         59.51203        24.73270        -0.59083
H         60.70307        26.80385        -1.25161
H         60.67143        29.19229        -1.84270
H         60.46221        30.84977        -2.83950
H         60.23091        33.16018        -3.73416
H         60.34239        36.18041        -3.34119
H         60.67810        38.15317        -1.83168
H         60.99168        39.51168        -0.27335
H         61.00577        41.93569        -0.12954
H         60.90681        43.78089        -0.88619
H         60.79634        46.17322        -1.37878
H         59.69142        48.38561        -1.02496
