         266
 CSIRO Nanostructure Databank - Neutral Graphene Oxide Data Set
C        -11.16127         0.99896         0.71405
C         -9.96144         1.73179         0.43149
C         -8.78375         1.00928         0.08292
C         -7.61121         1.73159        -0.27749
C         -6.44554         0.94171        -0.74247
C         -5.13550         1.65697        -1.00281
C         -3.83221         0.88885        -1.11353
C         -2.55430         1.42643        -0.47361
C         -1.32530         0.85867        -1.17570
C         -0.02457         1.57950        -1.04052
C          1.11168         0.78679        -0.44469
C          2.44157         1.47283        -0.47428
C          3.70160         0.70003        -0.23577
C          4.94547         1.47805        -0.02566
C          6.18890         0.73792         0.26293
C          7.42402         1.37359        -0.31112
C          8.47543         0.63391        -1.09650
C          9.84158         1.19187        -0.92417
C         10.95857         0.27964        -0.91934
C         -9.90313         3.14582         0.52664
C         -8.73320         3.84650         0.24685
C         -7.59207         3.13862        -0.23131
C         -6.35435         3.91212        -0.52663
C         -5.07183         3.13383        -0.80922
C         -3.87591         3.78929        -0.13805
C         -2.50000         2.98750        -0.06904
C         -1.36050         3.72915        -0.81871
C         -0.06473         2.99190        -0.49719
C          1.20133         3.69672        -0.11938
C          2.47146         2.95725        -0.41524
C          3.78126         3.65347        -0.27447
C          5.00569         2.82945        -0.38658
C          6.21689         3.51199        -0.69866
C          7.42217         2.80209        -0.72457
C          8.71014         3.40864        -0.81663
C          9.88172         2.59525        -0.80311
C         -8.65429         5.35478         0.47192
C         -7.25041         5.70210         1.02634
C         -6.21427         5.29028         0.00293
C         -5.04440         5.99687        -0.32327
C         -3.81746         5.23745        -0.65801
C         -2.51430         6.00132        -0.67714
C         -1.30789         5.18271        -0.35527
C         -0.02358         5.91171        -0.10730
C          1.32112         5.21528         0.05550
C          2.40307         5.74759        -0.90234
C          3.76968         5.10325        -0.58787
C          4.95501         5.77738        -1.25300
C          6.30955         4.95795        -1.18525
C          7.41479         5.57789        -0.28996
C          8.78351         4.91992        -0.62069
C         -7.05445         7.06912         1.67641
C         -6.38921         8.12901         1.15325
C         -4.90996         7.40669        -0.29747
C         -3.69386         8.11211        -0.17118
C         -2.48022         7.42425        -0.28257
C         -1.20885         8.08034        -0.10542
C         -0.01768         7.37780        -0.23718
C          1.26350         8.07721        -0.49723
C          2.49881         7.28614        -0.86746
C          3.83296         7.91844        -0.65431
C          5.00257         7.20880        -0.72200
C          6.28924         7.82991        -0.41383
C          7.43578         7.09022        -0.32846
C         -5.71931         9.20563         1.88985
C         -4.56291         9.79674         1.50336
C         -3.75196         9.58725         0.20830
C         -2.36365        10.18027         0.37408
C         -1.19547         9.50948         0.20580
C          0.14035        10.16262         0.56666
C          1.38995         9.45998         0.03318
C          2.60984        10.04053         0.07247
C          3.82973         9.43718        -0.60666
C          5.14094         9.98819        -0.11173
C          6.27297         9.25851        -0.09859
C        -11.17509        -0.37130         0.69146
C         -9.97793        -1.12659         0.44210
C         -8.78131        -0.42568         0.12648
C         -7.55315        -1.16412        -0.03560
C         -6.38622        -0.50126        -0.46269
C         -5.08821        -1.21335        -0.52548
C         -3.87985        -0.62055        -1.23034
C         -2.60271        -1.49451        -1.42472
C         -1.29114        -0.67229        -1.28008
C         -0.04082        -1.42791        -0.91337
C          1.03551        -0.67571        -0.17790
C          2.26777        -1.35684         0.49241
C          3.61642        -0.76013         0.08667
C          4.79300        -1.42043         0.75956
C          6.13349        -0.72466         0.67752
C          7.33961        -1.62279         0.68024
C          8.74218        -1.22266         0.43288
C          9.61166        -1.87462        -0.59784
C         10.88155        -1.08759        -0.81479
C         -9.96629        -2.53960         0.53557
C         -8.75453        -3.25992         0.49334
C         -7.54617        -2.56321         0.26597
C         -6.27280        -3.24896         0.55102
C         -4.99833        -2.57949         0.09779
C         -3.89210        -3.47713        -0.38266
C         -2.58053        -2.82239        -0.67052
C         -1.42804        -3.50590        -0.45539
C         -0.08174        -2.95756        -0.89431
C          1.07091        -3.61178        -0.14524
C          2.25536        -2.88381         0.38706
C          3.60192        -3.62029         0.31193
C          4.72204        -2.89600         1.06028
C          6.00898        -3.66382         1.40085
C          7.11361        -3.13540         0.38354
C          8.45540        -3.86380         0.59926
C          9.60134        -2.98339         0.46889
C         -8.72395        -4.70909         0.61860
C         -7.57563        -5.44140         0.71585
C         -6.27840        -4.73610         0.87717
C         -4.92804        -5.49133         0.87845
C         -3.94859        -4.94890        -0.14918
C         -2.67189        -5.76432        -0.37592
C         -1.41968        -4.95480        -0.11027
C         -0.15523        -5.75087        -0.22285
C          1.20250        -5.10466        -0.42565
C          2.17059        -5.74429         0.56024
C          3.49614        -5.09272         0.66285
C          4.61204        -5.82631         0.96097
C          5.90359        -5.18243         1.29655
C          7.17743        -5.96842         1.07015
C          8.44411        -5.20752         0.85235
C         -7.68306        -6.96181         0.67913
C         -6.37097        -7.71818         0.83497
C         -5.05461        -7.01302         0.79773
C         -3.82372        -7.78045         0.45093
C         -2.62939        -7.13944         0.28907
C         -1.34767        -7.92309         0.13336
C         -0.18533        -7.23051        -0.58221
C          0.77641        -8.00726         0.38780
C          2.00665        -7.21940         0.91643
C          3.31493        -7.88668         1.14008
C          4.55200        -7.28752         0.99854
C          5.78982        -8.01740         0.64739
C          6.99420        -7.34771         0.57756
C         -6.38034        -9.19055         0.57274
C         -5.26561        -9.87107         0.26578
C         -4.01010        -9.15702        -0.16339
C         -2.74616        -9.96935        -0.23223
C         -1.52646        -9.37021        -0.23679
C         -0.26374       -10.04937        -0.47885
C          0.91978        -9.41800        -0.19291
C          2.18456       -10.00323        -0.63989
C          3.34962        -9.84252         0.04851
C          4.71638       -10.12054        -0.34815
C          5.77329        -9.34597         0.02787
O          2.15974        -1.04370         1.88909
H          1.56662        -1.70999         2.30347
O         -4.46891        -4.40623        -1.39938
O          1.64348        -6.16546         1.84757
O          3.94543         4.66880         0.78483
O         -6.01922         1.31842        -2.10467
O          0.52494         0.28755         0.81374
O          6.80435         4.89230        -2.54592
O         -0.04163        -7.45008        -1.96947
H          0.66401        -6.83955        -2.29484
O          1.21595        -3.37871         1.28373
O          7.20609         1.36829         1.13541
O         -5.73552         3.84411        -1.86680
O         -0.27884        -0.98475        -2.27988
O          4.56904         5.89557        -2.64460
H          5.36030         5.62159        -3.17766
O          3.24035        -9.26440         1.33177
O          3.71752         9.85347        -2.00807
H          2.94918         9.35675        -2.38239
O         -4.32071         3.93748         1.24267
H         -3.49588         3.92897         1.79840
O          0.37776         3.05616         0.89322
O          6.58132        -5.81903         2.41313
O          6.66775        -3.27770        -0.90516
O         -4.58035        -1.45594         0.90196
O          0.22229        10.22919         2.00349
H          0.24090         9.31501         2.35421
O         -3.19560         5.61122        -1.90754
O          8.12734        -0.07044        -2.03815
O          4.41046        -1.92766         2.08200
O         -3.87652         0.23512        -2.41321
O         -0.39660        -8.03536         1.33958
O          6.86754        -1.01203         1.92001
O         -0.90456         5.44471         1.01175
O         -4.42144        10.32302        -0.83871
H         -5.30089         9.90055        -0.96843
O         -5.65831        -7.45804         2.09108
O         -2.49806         0.69080         0.79097
H         -1.55001         0.52593         1.02623
O         -6.09876         8.14808        -0.23683
O         -2.09634         3.03741         1.29809
H         -2.33822         2.17666         1.72051
O          2.47694         2.27276        -1.71248
O         -4.26059        -5.21548         2.12333
H         -4.70663        -5.74708         2.81972
O          3.83556        -0.38009        -1.28054
O         -0.70857        -5.38994         1.07396
O         -8.83929         6.06436        -0.74854
H         -9.66612         5.75932        -1.17315
O         -4.30749        -8.75767        -1.56109
H         -3.53730        -8.23543        -1.88831
O          1.70268         7.93146        -1.91857
O         -1.63228         3.68786        -2.21316
H         -0.87078         4.03247        -2.72311
O          1.71719        -5.37905        -1.74339
H          1.40645        -4.66054        -2.34636
O          1.98336         5.31966        -2.20546
H          2.70571         5.56949        -2.83380
O         10.60057         5.11813        -2.11735
H         10.44720         4.47339        -2.85075
O         -6.27510        -3.73493         1.93791
O          7.12968         5.21119         1.08151
H          6.17504         5.35709         1.26328
O          3.97228        -3.52298        -1.08978
H          4.97562        -3.51436        -1.16868
O         -2.64206        -6.13099        -1.78529
H         -3.23313        -5.49817        -2.26213
O         -0.65280         1.43507        -2.33262
O          1.71247         5.50451         1.40422
H          1.02803         5.10201         1.98429
O          0.05771        -3.41660        -2.26351
H         -0.41788        -2.75729        -2.83159
O          9.29918        -0.40164         1.34500
H          8.59159        -0.17547         2.00350
O          9.26701         5.61332        -1.82863
H          7.69775         5.31068        -2.60469
O          9.01798        -2.26325        -1.80564
H          8.11517        -2.67083        -1.64609
O         -2.65125        -1.93930        -2.80092
H         -2.85409        -1.15049        -3.35553
O         -7.04063         4.74726         2.11028
H         -6.07535         4.56547         2.18166
O          6.40478        -3.37528         2.72440
H          5.95707        -2.54074         3.00422
O         -8.31075        -7.36844        -0.54750
H         -7.69539        -7.20422        -1.29124
H         11.82658        -1.65294        -0.82546
H         11.96420         0.72679        -0.99310
H         10.85971         3.09357        -0.70661
H          9.50501         5.14431         0.20748
H          8.37594         7.59316        -0.05325
H          7.22277         9.71718         0.21633
H          5.17292        11.05462         0.15919
H          2.70650        11.06670         0.46197
H          0.14082        11.22192         0.20553
H         -2.32946        11.24254         0.66449
H         -4.15182        10.55922         2.18609
H         -6.13916         9.47695         2.87254
H         -7.27078         7.08746         2.75597
H         -9.44505         5.65299         1.21866
H        -10.79602         3.69306         0.86674
H        -12.07797         1.55763         0.95252
H        -12.10388        -0.91712         0.91230
H        -10.90749        -3.07402         0.73149
H         -9.68660        -5.24031         0.56530
H         -8.37424        -7.28405         1.50146
H         -7.32231        -9.72270         0.77617
H         -5.29892       -10.96650         0.16262
H         -2.83380       -11.04486        -0.45278
H         -0.26916       -11.06280        -0.90638
H          2.17822       -10.57915        -1.57801
H          4.90711       -10.99092        -0.99525
H          6.76649        -9.68436        -0.31206
H          7.86871        -7.86385         0.15122
H          9.38802        -5.77543         0.86922
H         10.44861        -3.05900         1.16882
