         300
 CSIRO Nanostructure Databank - Neutral Graphene Oxide Data Set
C         30.22188        31.79083         0.89522
C         30.40816        33.01728         0.96973
C         30.62825        36.22528         1.22540
C         30.62203        37.44278         1.55547
C         30.33335        40.49432        -0.78949
C         30.29055        41.67466        -0.40835
C         32.59287        28.91612         0.81802
C         31.51392        29.50672         0.71453
C         32.66989        31.65303         0.83924
C         31.31827        30.91872         0.26666
C         32.74601        33.13414         0.47107
C         31.50751        33.90673         0.72457
C         32.65132        36.04355        -0.00798
C         31.50655        35.27212         0.69805
C         32.79556        37.50844         0.42091
C         31.85680        38.15412         1.25135
C         32.74916        40.40282        -0.37845
C         31.56900        39.71653        -1.08867
C         32.67044        41.72817         0.05609
C         31.29006        42.40041         0.42529
C         32.57850        44.49397         0.31947
C         31.52035        43.86695         0.22778
C         35.51479        27.36877         1.35683
C         35.14782        28.57334         0.53723
C         33.99184        29.39951         1.09714
C         35.15208        31.55041         0.05096
C         33.90172        30.84003         0.45369
C         35.25715        33.05497         0.30633
C         33.92024        33.78615         0.22309
C         35.07779        35.85276        -0.76760
C         34.00778        35.31153         0.25094
C         35.00975        37.43403        -0.85282
C         33.93327        38.19165        -0.11917
C         35.28790        40.25669         0.05781
C         33.94893        39.63182        -0.25203
C         35.24895        41.78319         0.23219
C         33.92818        42.49201         0.31680
C         35.24622        44.74962         0.28227
C         33.95384        44.02090         0.11110
C         35.49525        46.15269         0.65263
C         37.87117        27.66498         1.82342
C         36.58550        26.88056         1.72244
C         37.79912        28.58898         0.53322
C         36.48863        29.38751         0.61987
C         37.62777        31.29380        -0.63532
C         36.45988        30.81412         0.20316
C         37.60804        32.86011        -0.79744
C         36.39489        33.71507        -0.50118
C         37.60644        35.92385        -0.44512
C         36.44745        35.22466        -0.46089
C         37.57565        37.44739        -0.28406
C         36.40762        38.10187        -1.04007
C         37.74317        40.40084        -0.61395
C         36.43866        39.66160        -0.78171
C         37.76309        41.89605        -0.37047
C         36.48726        42.60967        -0.02200
C         37.79063        44.77489         0.17861
C         36.52148        43.98836         0.50929
C         37.91043        46.11508         0.97613
C         36.56525        46.71391         0.90132
C         40.24790        24.75980         1.39672
C         39.35870        25.43412         1.98243
C         40.41176        27.49056         1.19683
C         39.18522        26.90295         1.85984
C         40.37515        28.71460         0.29707
C         39.03606        29.45499         0.34571
C         40.15574        31.16191        -1.02225
C         38.95772        30.68381        -0.22611
C         40.13695        33.03607        -0.40284
C         38.96067        33.40959        -1.13541
C         40.12777        35.96731        -0.84603
C         38.95097        35.37841        -0.01259
C         40.16272        37.39369        -0.28621
C         38.93663        38.21277        -0.67009
C         40.26298        40.35855        -0.09226
C         38.91436        39.62729        -0.00770
C         40.25138        41.84046        -0.26342
C         39.08762        42.55059        -0.19873
C         40.30002        44.84297        -0.20255
C         39.11011        43.97751         0.33836
C         40.61785        46.01887         0.80150
C         39.24950        46.76766         1.15317
C         40.51388        48.85219         0.82449
C         39.52463        48.19512         1.20630
C         42.50329        24.64624         0.01183
C         41.43352        25.14221         0.75132
C         42.94206        27.31130         0.70797
C         41.64139        26.63579         1.01913
C         42.93072        28.79374         0.45672
C         41.61104        29.60878         0.56853
C         42.79935        31.45324        -0.85464
C         41.57067        30.56898        -0.63190
C         42.71161        32.93227        -0.46340
C         41.44542        33.70487        -0.73029
C         42.74648        35.94464        -0.45031
C         41.47524        35.22155        -0.80281
C         42.73381        37.33526        -0.21305
C         41.46996        38.07320        -0.07911
C         42.79633        40.19891        -0.70017
C         41.54100        39.58058        -0.08604
C         42.80736        41.75325        -0.58048
C         41.58586        42.53150        -0.02191
C         42.85423        44.73471        -0.52814
C         41.56100        43.99917        -0.46042
C         42.85044        46.22075        -0.33475
C         41.75983        46.88137         0.21734
C         42.99132        48.89752        -0.01646
C         41.75416        48.34097         0.37079
C         43.49105        25.24682        -0.51742
C         45.25190        27.16976        -0.45380
C         44.15883        26.40346         0.24402
C         45.31138        28.67609        -0.30115
C         44.07295        29.43330         0.05979
C         45.26754        31.54680        -0.47426
C         44.09803        30.85124        -0.31969
C         45.19822        32.96121        -1.03197
C         43.98138        33.71168        -0.45153
C         45.21285        35.87044        -0.08273
C         43.94365        35.19680        -0.42971
C         45.21400        37.32020         0.27734
C         43.91235        38.10867         0.35328
C         45.24958        40.30516         0.29803
C         44.05221        39.51653        -0.19121
C         45.42657        41.69026        -0.37762
C         44.11143        42.48956        -0.48893
C         45.42108        44.63588        -0.58617
C         44.12340        43.97800        -0.10801
C         45.39108        46.13997        -0.89578
C         44.08990        46.92077        -0.80650
C         43.97960        48.35668        -0.55925
C         47.69709        27.24399        -0.60886
C         46.62816        26.65084        -0.43624
C         47.94923        28.65452        -0.25632
C         46.63741        29.40659        -0.12555
C         47.87574        31.66203        -0.58065
C         46.60114        30.92295        -0.23946
C         47.83630        33.08338        -1.09912
C         46.49729        33.79703        -0.97984
C         47.78740        35.97337        -0.32635
C         46.48294        35.25733        -0.60965
C         47.70038        37.26976         0.45333
C         46.49972        38.06063         0.03587
C         47.92013        40.22657         0.18454
C         46.56236        39.53932         0.04216
C         47.93957        41.73146         0.16551
C         46.59104        42.48681         0.34765
C         47.82607        44.76078         0.49040
C         46.68323        43.92931        -0.17565
C         47.74643        46.06360        -0.26679
C         46.73496        46.66586        -0.64082
C         50.53522        28.94495        -0.37018
C         49.17399        29.37810        -0.69657
C         50.48443        31.65787        -0.74402
C         49.15799        30.89108        -0.81025
C         50.48061        33.14310        -1.00100
C         49.13816        33.86815        -1.11218
C         50.23705        35.75796         0.27422
C         49.10719        35.31987        -0.64151
C         50.10254        37.00897         1.14104
C         48.91283        37.94398         0.99873
C         50.07728        40.28695         1.57618
C         49.19916        39.42258         0.61605
C         50.25426        41.65544         1.19642
C         49.21359        42.46053         0.54098
C         50.15320        44.60710         1.48720
C         49.15503        44.04356         0.59425
C         51.61237        29.55017        -0.31542
C         52.86473        31.86947        -0.30412
C         51.70760        31.00113         0.06403
C         52.82810        33.07253        -0.54796
C         51.77246        34.06117        -0.94069
C         52.47175        35.81074         0.85858
C         51.60139        35.16671         0.05337
C         52.44144        36.76890         1.73517
C         51.29774        37.51515         1.87780
C         51.44170        40.69057         3.50438
C         50.86707        39.74458         2.63917
C         51.36642        41.94474         3.67841
C         51.41818        42.91160         2.66660
C         50.75780        44.13029         2.47770
O         43.38713        33.16179         0.80631
O         39.10460        35.03507         1.16325
O         48.48227        33.45776        -2.33852
O         34.65692        44.47367        -1.04964
O         36.96377        42.57426        -1.42132
O         45.03893        28.00617        -1.59812
O         42.84066        31.18600        -2.29802
O         36.65937        30.46282         1.60231
O         49.65937        43.37284        -0.54837
O         46.31050        44.01029        -1.57163
O         42.16264        44.30409        -1.74516
O         34.65583        42.11549         1.53721
O         38.56385        46.12767         2.25228
O         49.74727        35.67127         1.65667
O         51.10374        38.42283         2.89738
O         31.68657        38.79853        -1.84729
O         48.16594        40.97913        -1.05122
O         37.11187        40.23091        -1.92299
O         49.07638        30.01921        -1.98500
O         46.52935        38.77488        -1.21495
O         40.59193        28.31174        -1.07486
O         39.96505        31.18720        -2.29273
O         43.44751        42.29296        -1.76396
O         44.65146        46.46297        -2.06754
O         40.15222        27.67923         2.62235
O         51.53128        42.22725         1.35066
O         47.39564        31.60468         0.79630
O         41.57147        34.38404        -2.00574
O         50.75907        32.17632        -2.06438
O         34.23619        37.75459        -2.03958
O         42.60184        26.92540         2.09179
O         41.08114        40.12856         1.17155
O         47.86811        37.47583         1.89968
O         34.25020        31.01723        -0.94342
O         36.63591        33.19610        -1.83670
O         48.55601        36.27772        -1.55440
O         40.62031        37.53928         1.06519
O         45.32351        36.31594         1.33142
O         46.37161        34.84933        -1.99352
O         47.41243        28.98042         1.04377
O         31.27083        31.02788        -1.10746
H         30.63477        30.38747        -1.48334
O         39.94463        45.46959        -1.42946
H         40.65627        45.28151        -2.08864
O         34.20920        29.51919         2.48125
H         33.51664        30.11110         2.85912
O         51.94627        34.59993        -2.22942
H         51.88983        33.86408        -2.87769
O         38.60523        39.61029         1.39159
H         39.36346        39.18150         1.85270
O         46.41276        42.63821         1.75879
H         45.98018        41.83686         2.14279
O         37.80737        28.51056         2.94938
H         37.91456        27.97870         3.76373
O         35.68523        33.19199         1.70074
H         35.91608        32.31013         2.07586
O         32.58838        31.61388         2.27817
H         31.71337        31.97107         2.55056
O         39.27005        43.75602         1.75577
H         40.10908        43.24719         1.89594
O         43.62138        38.24009         1.80556
H         43.88983        37.38098         2.21385
O         44.91747        32.77212        -2.43369
H         45.16328        33.59547        -2.91384
O         39.13204        38.48051        -2.06013
H         38.26589        38.46168        -2.54319
O         34.41299        35.67417         1.58410
H         35.02420        34.98211         1.93163
O         39.10809        33.63131        -2.43679
H         38.21273        33.63047        -2.85799
O         41.79077        42.60662         1.42962
H         41.68025        41.67334         1.76551
O         51.41771        31.15482         1.42698
H         52.15334        30.79879         1.96614
O         36.65690        37.88322        -2.43400
H         35.76839        37.97855        -2.87468
O         31.04821        42.12774         1.79262
H         30.26645        42.64283         2.08151
O         37.76036        27.73402        -0.62732
H         38.61863        27.80255        -1.11375
O         39.93897        32.83777         0.95959
H         40.77448        32.94252         1.46004
O         37.57462        45.18360        -1.17306
H         37.34131        44.38270        -1.70551
O         41.14489        45.52292         2.02784
H         40.38214        45.30811         2.61724
O         41.80958        29.68583        -1.80024
H         41.11997        29.96616        -2.48946
O         35.63012        39.73210         1.37246
H         35.10823        40.23906         2.03602
O         44.17844        44.11700         1.33002
H         43.36106        43.70883         1.71214
O         32.10828        39.33233         1.82760
H         31.34043        39.65554         2.34037
O         45.81075        41.38191        -1.71253
H         45.98465        42.22182        -2.19652
O         42.66535        39.88684        -2.10980
H         43.34366        40.41889        -2.58740
O         45.06645        40.45806         1.73438
H         44.55704        39.66389         2.06632
O         37.36888        30.76235        -1.94390
H         38.19786        30.88490        -2.47857
O         37.31820        37.58751         1.11310
H         37.97018        37.05303         1.61668
O         32.29339        36.00269        -1.38361
H         32.65462        36.81730        -1.82855
O         44.77570        25.86674         1.38563
H         44.08265        25.69602         2.06642
O         39.69415        36.06142        -2.20196
H         40.32342        35.56554        -2.77369
O         47.43803        45.01486         1.82804
H         46.47659        45.19698         1.88202
O         34.91226        28.24795        -0.80729
H         35.70785        27.79227        -1.16318
O         49.99709        39.23588        -0.56507
H         49.77924        39.96276        -1.19817
O         34.76530        35.33171        -2.06029
H         34.38572        36.08630        -2.58251
O         41.52335        30.32998         1.78453
H         41.44156        29.69205         2.52696
