         671
 CSIRO Nanostructure Databank - Neutral Graphene Oxide Data Set
C          6.09928        31.84674         1.15152
C          6.09007        33.18821         1.18251
C          8.51131        27.49150         0.64561
C          8.44138        28.90407         0.47751
C          7.34462        29.61323         0.90621
C          8.36558        31.79860         0.16240
C          7.41367        31.09766         1.13032
C          8.42419        33.28105         0.32302
C          7.38423        33.96939         1.21067
C          8.46694        36.10056         0.51370
C          7.29324        35.42010         0.82071
C          8.51987        37.50068         0.28153
C         11.09003        23.38659         1.25509
C         11.01644        24.69669         0.81879
C          9.78484        25.41291         0.77670
C         10.96557        27.53162         0.27170
C          9.73195        26.79445         0.52201
C         10.93143        28.90424         0.01701
C          9.57777        29.52529        -0.31636
C         10.88627        31.80247        -0.36819
C          9.58597        31.05783        -0.31959
C         10.94091        33.24954        -0.03332
C          9.72429        33.99370         0.21868
C         10.99617        36.14181         0.61687
C          9.72577        35.35457         0.41640
C         10.96593        37.45910        -0.18319
C          9.72419        38.17365        -0.07810
C         10.89057        40.29033        -0.52256
C          9.69775        39.56937        -0.32437
C         10.90676        41.72710        -0.55850
C         13.28561        19.02029         1.36884
C         13.41163        20.52102         1.25225
C         12.39172        21.29958         1.67934
C         13.50545        23.28351         0.61090
C         12.43381        22.78592         1.55379
C         13.44856        24.67520         0.27307
C         12.24157        25.39192         0.43891
C         13.41580        27.45818        -0.07439
C         12.21516        26.79432         0.22348
C         13.46304        28.93659         0.16773
C         12.14692        29.65322        -0.10222
C         13.36365        31.79045        -0.43670
C         12.15587        31.04105        -0.25906
C         13.35668        33.18359        -0.50514
C         12.16622        33.89853        -0.08132
C         13.41112        36.14072        -1.40683
C         12.24664        35.24287         0.56760
C         13.37297        37.48077        -0.97103
C         12.11666        38.15900        -0.64112
C         13.39046        40.32478        -0.93247
C         12.10765        39.57199        -0.66967
C         13.36715        41.75407        -0.44259
C         12.10210        42.44550        -0.47891
C         13.27250        44.54886        -0.03645
C         12.10424        43.86316        -0.26858
C         13.20665        46.01166         0.32636
C         16.03188        14.98493         2.24085
C         15.91150        16.25803         1.68504
C         14.73163        17.04941         1.87973
C         15.70918        18.92153         0.64344
C         14.61398        18.31255         1.34057
C         15.59726        20.26172         0.14068
C         14.54840        21.08462         0.53327
C         15.75307        23.08758        -0.44812
C         14.57903        22.49536         0.21608
C         15.76676        24.55071        -0.60843
C         14.61081        25.31320        -0.25879
C         15.77161        27.41701        -0.84605
C         14.59779        26.73686        -0.39671
C         15.75370        28.88019        -0.89151
C         14.64167        29.59135        -0.48747
C         15.80206        31.75213        -1.10417
C         14.69456        31.08308        -0.34957
C         15.78505        33.13123        -1.20783
C         14.46241        33.84778        -1.34101
C         15.77888        36.00735        -0.90432
C         14.57122        35.35360        -1.22976
C         15.81570        37.39872        -0.72560
C         14.61125        38.14433        -0.74360
C         15.82584        40.23200        -0.27293
C         14.62261        39.55736        -0.52700
C         15.74508        41.61919         0.31689
C         14.53811        42.42590        -0.12692
C         15.74423        44.59755         0.10757
C         14.53786        43.85930         0.02930
C         15.72617        46.02524        -0.02523
C         14.49312        46.74794         0.05454
C         15.68359        48.87818        -0.17273
C         14.48082        48.12719        -0.01398
C         15.68921        50.27086         0.06563
C         18.58150        10.71660         2.67279
C         18.44544        12.02127         2.14417
C         17.39288        12.83736         2.51147
C         18.28494        14.72388         1.03096
C         17.09324        14.08720         1.81803
C         18.25506        16.17287         0.82367
C         17.01010        16.85901         0.96313
C         18.07013        18.79644        -0.13726
C         16.92901        18.19944         0.53712
C         17.78542        19.88516        -0.93067
C         16.56246        20.76427        -0.90534
C         18.00292        22.89546        -1.63908
C         16.81713        22.29718        -0.84374
C         18.01295        24.44675        -1.70554
C         16.87382        25.22535        -1.16493
C         18.12346        27.35050        -1.62410
C         16.90976        26.65999        -1.22277
C         18.06044        28.80546        -1.85889
C         16.92643        29.58920        -1.37171
C         18.20124        31.71351        -1.70789
C         16.98145        30.98966        -1.39638
C         18.19047        33.15212        -1.53718
C         17.02511        33.84395        -1.29171
C         18.27469        36.05274        -1.09801
C         17.06325        35.23652        -0.69807
C         18.31942        37.40064        -0.87124
C         17.09973        38.06585        -0.27736
C         18.29055        40.32283        -0.42090
C         17.06704        39.57209        -0.36957
C         18.31493        41.66627        -0.07387
C         17.07153        42.37942         0.32191
C         18.34816        44.69282         0.05610
C         17.04741        43.89668         0.28163
C         18.14741        46.01643        -0.65543
C         16.91332        46.76434        -0.32026
C         18.13838        48.90175        -0.71215
C         16.89529        48.15587        -0.43263
C         18.14595        50.39157        -0.29469
C         16.89006        50.99660         0.19407
C         18.17733        52.89586         1.07342
C         16.93859        52.28124         0.75186
C         18.22228        54.21339         1.61660
C         21.06584         6.54393         3.44892
C         20.98818         7.82907         2.91018
C         19.82505         8.64855         3.08228
C         20.75909        10.32944         1.45646
C         19.70157         9.89227         2.47245
C         20.77165        11.81596         1.32117
C         19.46960        12.49056         1.07135
C         20.74385        14.69585         0.94447
C         19.56276        14.00355         1.04189
C         20.73269        16.21707         0.94515
C         19.43709        16.84665         0.50094
C         20.62882        18.83904        -0.29862
C         19.40624        18.18069        -0.01947
C         20.69870        20.33886        -0.48387
C         19.56991        21.02426        -1.18649
C         20.63942        23.17684        -0.90751
C         19.36824        22.36042        -1.13724
C         20.59257        24.48525        -1.63381
C         19.33746        25.19940        -1.87942
C         20.57720        27.42478        -1.94159
C         19.33799        26.69338        -1.80284
C         20.63745        28.81697        -1.98401
C         19.38133        29.57390        -2.10135
C         20.66273        31.74695        -2.27675
C         19.38978        31.02876        -1.92552
C         20.73547        33.15396        -1.72817
C         19.47663        33.88095        -1.45544
C         20.75058        36.07467        -1.61281
C         19.43150        35.35994        -1.76304
C         20.71207        37.49747        -1.47085
C         19.52860        38.15360        -1.11636
C         20.80900        40.26142        -0.69208
C         19.48036        39.66864        -1.11694
C         20.84411        41.72001        -0.31595
C         19.59100        42.48487         0.07525
C         20.75466        44.63774        -0.74253
C         19.45060        43.84409        -0.64267
C         20.71568        46.00323        -0.90792
C         19.42842        46.75141        -0.95225
C         20.62732        48.93554        -0.64838
C         19.43801        48.21372        -0.77998
C         20.63775        50.28324        -0.18401
C         19.43051        50.96297         0.13530
C         20.63591        52.67659         1.48423
C         19.39485        52.17878         0.86004
C         20.64049        53.97475         2.29026
C         19.40719        54.82190         2.05551
C         20.67782        56.80848         2.80015
C         19.45227        56.16393         2.45100
C         20.69917        58.12787         3.26071
C         23.53783         3.74015         3.82201
C         22.34102         4.45949         3.88784
C         23.43708         6.35859         2.80137
C         22.26488         5.77419         3.37816
C         23.39270         7.68803         2.29270
C         22.15659         8.41474         2.28571
C         23.28506        10.38669         1.37119
C         22.10258         9.71434         1.75424
C         23.25966        11.79744         1.11338
C         22.03613        12.59201         1.52326
C         23.19054        14.64194         0.61310
C         22.01170        13.99927         0.94757
C         23.26252        16.16314         0.62864
C         21.95298        16.85974         0.34465
C         23.19350        18.95993        -0.21485
C         21.90041        18.18096        -0.05040
C         23.10905        20.21112        -1.05589
C         21.95715        20.91010        -1.08243
C         23.16976        23.07695        -1.38880
C         21.86761        22.34687        -1.55241
C         23.14899        24.48641        -1.53809
C         21.85561        25.16452        -1.84555
C         23.09030        27.40559        -1.67613
C         21.84847        26.65952        -2.05321
C         23.18830        28.81622        -2.20097
C         21.88786        29.57405        -1.99992
C         23.21592        31.69320        -2.28471
C         21.91718        30.94122        -2.03315
C         23.15258        33.18557        -1.97783
C         21.99547        33.91425        -1.93761
C         23.18550        36.11194        -1.93730
C         21.96596        35.38279        -1.82561
C         23.24032        37.52629        -1.85065
C         21.93437        38.29667        -1.88595
C         23.23044        40.32786        -1.15031
C         22.03557        39.65111        -1.22944
C         23.25061        41.76592        -0.88357
C         22.04989        42.48113        -0.66880
C         23.22421        44.57161        -1.07072
C         22.01230        43.89465        -0.81302
C         23.23457        46.02990        -1.30784
C         21.93267        46.78640        -1.25955
C         23.15760        48.83147        -0.36783
C         21.93687        48.32897        -1.14162
C         23.20828        50.27394        -0.03526
C         21.92932        51.08499        -0.13605
C         23.16595        52.86254         1.22837
C         21.91731        52.10200         0.99135
C         23.14877        54.12944         1.79361
C         21.92857        54.77790         2.15117
C         23.18075        56.82153         2.76105
C         21.93069        56.11003         2.56874
C         23.16719        58.15773         3.26706
C         21.92275        58.81361         3.52726
C         23.15007        60.79976         4.24636
C         21.93690        60.13736         4.01740
C         24.68237         4.30144         3.25877
C         25.80353         6.22154         2.14198
C         24.65421         5.61966         2.74207
C         25.76742         7.51565         1.65537
C         24.56199         8.27781         1.75206
C         25.70328        10.29099         0.92096
C         24.52761         9.65479         1.33487
C         25.63047        11.68117         0.46103
C         24.40204        12.46498         0.68434
C         25.62658        14.55159         0.14474
C         24.42468        13.89274         0.47693
C         25.57508        15.89604        -0.53775
C         24.38685        16.74350        -0.17374
C         25.62377        18.73012        -0.86951
C         24.40611        18.09345        -0.48183
C         25.62342        20.14875        -1.27817
C         24.40844        20.93115        -0.83926
C         25.61384        23.04792        -1.50935
C         24.42263        22.39072        -1.22603
C         25.65169        24.53584        -1.72409
C         24.33562        25.20622        -1.47897
C         25.65978        27.38614        -1.38089
C         24.35074        26.66949        -1.35232
C         25.67177        28.76223        -1.55497
C         24.39577        29.51297        -1.60134
C         25.74890        31.66495        -1.64844
C         24.41595        30.99742        -1.64155
C         25.71266        33.14354        -1.60051
C         24.42897        33.89572        -1.72528
C         25.74973        36.06821        -2.12428
C         24.44448        35.34939        -2.09077
C         25.78335        37.59718        -2.18640
C         24.45376        38.24010        -1.80688
C         25.69707        40.30954        -1.33410
C         24.48167        39.64037        -1.48367
C         25.74092        41.71767        -0.80919
C         24.46601        42.48142        -1.02737
C         25.71253        44.62542        -1.41200
C         24.45150        43.87713        -1.12962
C         25.72723        46.07727        -1.10671
C         24.52049        46.73005        -1.06638
C         25.74198        48.81900        -0.40738
C         24.45033        48.08130        -0.49118
C         25.69708        50.21516         0.12807
C         24.37796        50.85926         0.39392
C         25.58429        52.66145         1.57849
C         24.40441        52.18643         0.98755
C         25.63878        53.99606         2.31966
C         24.47100        54.86731         1.80689
C         25.64152        56.87152         2.71573
C         24.40607        56.19867         2.49784
C         25.62716        58.18731         3.20755
C         24.40137        58.84243         3.49012
C         24.36435        60.17554         3.98891
C         26.97532         8.08955         0.94233
C         28.15121        10.29257         0.75803
C         26.97627         9.60399         0.87880
C         28.18939        11.79451         0.85564
C         26.92979        12.42692         0.31020
C         28.11649        14.58512         0.19213
C         26.89405        13.89734         0.24483
C         28.03506        16.02408         0.03497
C         26.85220        16.67166        -0.36563
C         28.11071        18.76742        -0.73757
C         26.86917        18.05522        -0.68314
C         28.23621        20.09478        -1.45603
C         26.90839        20.85002        -1.58145
C         28.11813        23.09402        -1.13796
C         26.94502        22.36820        -1.77790
C         28.05672        24.43050        -0.87109
C         26.75214        25.19324        -0.79669
C         28.10656        27.36795        -1.02791
C         26.86115        26.65990        -1.13797
C         28.15727        28.78571        -1.20916
C         26.96742        29.48401        -1.82456
C         28.26924        31.69170        -1.59764
C         26.91924        30.97848        -1.56429
C         28.19022        33.12538        -1.15249
C         27.01656        33.85569        -1.68443
C         27.90665        36.06300        -0.74407
C         27.01247        35.33372        -1.73080
C         28.25572        37.43571        -1.37160
C         26.97581        38.22438        -1.50507
C         28.17998        40.30543        -1.04405
C         26.95159        39.59397        -1.31026
C         28.20815        41.74370        -1.09682
C         27.01091        42.43957        -1.16546
C         28.27634        44.64348        -1.14028
C         27.01813        43.89192        -1.37797
C         28.25247        46.01886        -0.96152
C         27.00035        46.73760        -0.82129
C         28.22447        48.75471         0.01670
C         27.01072        48.06397        -0.37740
C         28.17273        50.04673         0.65899
C         26.89719        50.68119         0.84815
C         28.52749        52.88773         1.87706
C         26.68489        51.77933         1.68166
C         28.22621        54.26363         1.84402
C         26.94941        54.81220         2.17118
C         26.86910        56.18248         2.40512
C         29.38616        12.47072         0.24647
C         30.58174        14.47221        -0.50722
C         29.38007        13.83296         0.04502
C         30.96736        15.74978        -0.15612
C         29.14519        16.85471         0.27607
C         30.60296        18.83806        -0.04675
C         29.26232        18.15414        -0.23288
C         30.57802        20.25921        -0.56832
C         29.38728        20.92154        -0.91282
C         30.57019        23.05018        -0.76527
C         29.37349        22.34068        -0.97423
C         30.54435        24.53654        -0.96819
C         29.28580        25.17161        -0.38213
C         30.51238        27.35675        -0.55430
C         29.29287        26.66115        -0.69518
C         30.50332        28.77502        -0.53604
C         29.34029        29.50367        -0.89877
C         30.51228        31.67547        -0.45639
C         29.39299        30.95319        -0.91332
C         30.49801        33.12288        -0.30667
C         29.26536        33.80731        -0.65572
C         30.29049        35.96215         0.29266
C         29.10599        35.23437        -0.26478
C         30.18696        37.48330         0.43786
C         29.32959        38.17229        -0.61739
C         30.60539        40.27631        -0.47875
C         29.32863        39.55792        -0.67746
C         30.71462        41.73197        -0.79428
C         29.46235        42.48236        -1.04320
C         30.79124        44.56468        -0.92444
C         29.48904        43.86279        -1.04408
C         30.81079        46.06307        -0.90725
C         29.51462        46.86839        -1.07851
C         30.67081        48.80751         0.05291
C         29.46700        48.13169        -0.24209
C         30.62828        50.09269         0.58744
C         29.41397        50.75104         0.90895
C         29.51835        52.15398         1.21963
C         31.91284        16.65784        -0.70936
C         33.01859        18.81916        -0.65262
C         31.84757        18.06449        -0.52068
C         33.05164        20.23789        -0.46782
C         31.79749        20.96717        -0.50170
C         33.04431        23.10307        -0.45422
C         31.80171        22.37889        -0.60400
C         33.05183        24.51314        -0.43315
C         31.80596        25.25208        -0.54519
C         33.06803        27.37364        -0.62379
C         31.77138        26.62065        -0.44564
C         33.00833        28.78722        -0.09513
C         31.70303        29.51121        -0.11030
C         32.89495        31.67722         0.21893
C         31.72182        30.98492        -0.10445
C         32.86580        33.11124         0.42360
C         31.61450        33.82114         0.19365
C         32.74106        35.96391         0.75424
C         31.59687        35.26144         0.38726
C         32.79442        37.40536         0.79365
C         31.54057        38.17747         0.67204
C         32.99689        40.28292         0.30874
C         31.67628        39.63407         0.32263
C         33.05283        41.69776         0.12735
C         31.91183        42.44517        -0.29203
C         33.13093        44.54484         0.02711
C         31.95188        43.83446        -0.36296
C         33.10016        46.00131         0.04141
C         32.00808        46.72361        -0.33227
C         31.99263        48.23182        -0.40520
C         34.24784        20.94559        -0.35677
C         35.45872        23.07033         0.02078
C         34.26868        22.37302        -0.26254
C         35.47575        24.48330         0.12546
C         34.26789        25.20605        -0.15645
C         35.40846        27.30723         0.33237
C         34.27737        26.62764        -0.10005
C         35.35297        28.76941         0.55112
C         34.29253        29.57698        -0.18364
C         35.30943        31.66441         0.71076
C         34.16600        30.99288         0.34350
C         35.27430        33.08593         1.01391
C         34.01373        33.78031         0.84316
C         35.22535        35.97222         1.21311
C         33.92560        35.21389         1.30356
C         35.25354        37.33769         1.07177
C         34.02112        38.09278         0.86312
C         35.37775        40.22029         0.83137
C         34.11485        39.52977         0.68832
C         35.41873        41.62729         0.74273
C         34.27087        42.39464         0.42097
C         34.27180        43.81942         0.38696
C         36.64449        25.20622         0.48956
C         37.81710        27.33898         0.98124
C         36.63034        26.60528         0.63021
C         37.85254        28.73377         1.09529
C         36.58200        29.48993         0.96017
C         37.76375        31.59604         1.37721
C         36.64985        30.96326         0.61381
C         37.71286        33.04719         1.75283
C         36.42704        33.75371         1.40306
C         37.74690        35.90856         1.33320
C         36.44127        35.23207         1.71171
C         37.73115        37.32976         1.24478
C         36.53209        38.05818         1.14583
C         36.55445        39.46138         1.06371
C         39.02395        29.48826         1.33111
C         40.17812        31.69252         1.76275
C         38.96430        30.89974         1.51340
C         40.18693        33.01424         1.49699
C         38.91809        33.70345         1.02811
C         38.91133        35.19351         1.17608
O         18.55360        46.18758        -2.04359
O         25.85591        49.97100        -1.31909
O         35.55908        29.16186         1.94878
O         21.02351        40.65546         0.70245
O         21.93309        25.81787        -3.22009
O         25.16110        35.55103        -3.36793
O         18.51438        29.15537        -3.21225
O         18.04622        49.98392        -1.69030
O         18.70716        20.20470        -1.92212
O         26.06659        20.31134        -2.68300
O         21.32761        51.58296         2.22855
O         17.15711        43.17503         1.56309
O         23.63484        48.02229         0.76211
O         24.97626        33.61841        -0.39256
O         10.09124        31.55071        -1.59964
O         29.30172        35.32204         1.18264
O         27.50374        34.58799        -2.89058
O         24.43318        20.81951         0.68059
O         31.13260        45.33071        -2.14829
O         22.51271        46.38354        -2.55564
O         20.29403        33.38694        -0.34488
O         23.44621        27.20959        -0.28422
O         26.35326        44.26086        -2.67804
O         17.21296        14.01428         0.33977
O         27.63750        52.10144         2.65586
O         23.50992        19.67910         1.08259
O         24.10919        30.30517        -0.39211
O         32.30588        28.93026         1.14557
O         31.35067        39.22685         1.70114
O         13.20393        35.53609         1.28050
O         31.09136        40.71755        -1.80054
O         26.31305        11.83040        -0.85961
O         30.24003        16.31252         0.94151
O          7.80902        32.67244        -0.85947
O         18.46617        24.82840        -3.04257
O         21.99884        51.81942        -1.39005
H         22.02161        51.15191        -2.11341
O         29.38109        37.69092         1.63332
H         29.70659        38.52549         2.05156
O         22.17450        12.80528         2.98734
H         22.95256        13.38862         3.12271
O         19.13533        35.38950        -3.20990
H         19.16613        36.32624        -3.50082
O         29.31977        25.04444         1.05884
H         28.40693        25.19728         1.39063
O         15.44634        41.31237         1.72189
H         15.81644        42.06052         2.25002
O         17.19106        37.79702         1.18094
H         16.43942        38.25947         1.61259
O         23.44212        31.59571        -3.73239
H         22.60856        31.91294        -4.16176
O         17.79816        22.41624        -2.98785
H         18.22269        23.07836        -3.58724
O         33.65867        35.12011         2.77474
H         33.23455        35.96283         3.04805
O         30.76971        18.99212         1.39715
H         30.81516        18.08178         1.77032
O         25.81895        41.57963         0.67099
H         25.04838        41.04110         0.95524
O         34.68234        29.67627        -1.57022
H         35.52902        30.18524        -1.60753
O         33.23492        27.48291        -2.06890
H         33.26047        26.57648        -2.44029
O         15.10168        31.29309         1.07646
H         15.31732        32.24588         1.19246
O         18.92299        12.03675        -0.20713
H         18.07284        12.53374        -0.32850
O          7.86891        33.93594         2.60045
H          8.60438        34.58277         2.67693
O          8.03161        31.20748         2.45309
H          7.92617        32.14324         2.76675
O         20.91331        23.45608         0.47181
H         20.86653        22.59402         0.96118
O         26.03106        24.87995        -3.08089
H         26.65096        24.17766        -3.40823
O         20.72538        20.84227         0.90972
H         21.54604        20.47531         1.32100
O         27.21794        22.53207        -3.21429
H         26.66861        21.85840        -3.67915
O         36.36408        35.34915         3.18624
H         35.42553        35.12300         3.41874
O         23.39917        28.72813        -3.62682
H         23.51548        29.64847        -3.97020
O         28.18929         7.59874         1.51720
H         28.22076         7.88178         2.45376
O         20.81912        16.56765         2.38441
H         21.76389        16.42421         2.64673
O         19.02173        43.53304        -1.97911
H         18.92972        44.38739        -2.46940
O         29.54267        47.35189        -2.45973
H         29.81926        46.58243        -3.01186
O         26.00672        37.93165        -3.60652
H         25.54698        37.22552        -4.12414
O         12.29659        35.58293        -1.98757
H         11.59367        36.26372        -2.06297
O         13.50111        40.43775        -2.40631
H         12.71855        40.94280        -2.71515
O         22.10537        48.89439        -2.47021
H         22.35444        48.14887        -3.07125
O         23.57909        16.47024         2.05745
H         23.81739        17.42423         2.09853
O         24.80532        55.13745         0.40942
H         24.09374        55.69270         0.02796
O         25.45758        53.72263         3.72174
H         26.20444        53.14969         4.00339
O         19.76499        42.74728         1.49050
H         20.05639        41.89865         1.89649
O          9.30050        29.11047        -1.68579
H          9.67442        29.81106        -2.27091
O         12.10072        46.65873        -0.31006
H         12.27056        46.67890        -1.27394
O         32.16343        48.60047        -1.78861
H         31.36245        48.28905        -2.27517
O         17.18240        35.00806         0.74344
H         17.24177        35.90221         1.16792
O         28.76649        37.18876        -2.71881
H         28.05958        37.42996        -3.36267
O         27.05686        36.31761         0.38935
H         27.64583        36.35032         1.18458
O         15.90055        20.57438        -2.19865
H         16.48246        21.02002        -2.86381
O         28.65357        31.73270        -3.03009
H         28.31456        32.57524        -3.40957
O         38.71904        33.39362        -0.39646
H         39.44612        33.81583        -0.90124
O         20.33683         9.73388         0.18419
H         19.66074        10.34061        -0.20829
O         30.44919        24.74928        -2.41350
H         31.08726        24.15039        -2.85435
O         10.96551        36.59222         2.00619
H         11.90956        36.65999         2.28747
O         18.81654        45.14009         1.34353
H         18.84638        44.34520         1.93042
O         26.30562        25.08046         0.58535
H         25.51174        25.64662         0.70528
O         12.49564        18.53874         0.25809
H         12.98054        18.74738        -0.56758
O         14.04595        33.54555        -2.71148
H         13.20880        34.03446        -2.87785
O         28.17764        12.11905         2.29593
H         29.08722        11.98871         2.63746
O         20.56968        53.59955         3.69541
H         21.07236        52.75572         3.78093
O         37.05560        31.03957        -0.80595
H         37.56151        31.88440        -0.91652
O         21.67623        38.59653        -3.32079
H         22.49761        38.98790        -3.69149
O         13.67236        29.05214         1.62574
H         14.14757        29.90555         1.78529
O         20.64653        31.93227        -3.74666
H         20.20481        31.14887        -4.14277
O         37.93421        33.15267         3.17769
H         37.51517        33.99823         3.48269
O         21.52868        22.31561        -2.96616
H         22.31609        22.02712        -3.47309
O         12.81443        23.30157         2.89089
H         12.84504        24.28051         2.82470
O         27.16803        29.38600        -3.28425
H         27.87772        30.03645        -3.51425
O         28.64830        19.74946        -2.81292
H         27.82437        19.52041        -3.30155
O         25.43546        15.57754        -1.97667
H         26.15009        14.94689        -2.20941
O         19.33024        40.05093        -2.52217
H         20.05443        39.60581        -3.03059
H          5.15704        31.27784         1.15654
H          5.14045        33.74395         1.21564
H          7.62274        26.95054         1.00663
H          6.51857        29.06600         1.38922
H          6.34424        35.96617         0.92632
H          7.59121        38.08594         0.35045
H         10.17896        22.85548         1.56884
H          8.85439        24.87749         1.01867
H          8.74309        40.10980        -0.24495
H          9.94963        42.26721        -0.51194
H         12.72182        18.75284         2.29704
H         11.52244        20.84656         2.17996
H         11.14893        44.40855        -0.26113
H         13.00617        46.07037         1.43541
H         15.29149        14.63056         2.97276
H         13.87790        16.60250         2.41015
H         13.52706        48.66105         0.10888
H         14.74255        50.75974         0.34021
H         17.71903        10.29509         3.21472
H         16.80042        12.58721         3.40449
H         16.00216        52.78981         1.02402
H         17.28831        54.79642         1.63815
H         20.18170         6.10720         3.93728
H         19.06316         8.33101         3.81141
H         18.52708        56.76108         2.43886
H         19.74828        58.65636         3.42719
H         23.57575         2.71638         4.22030
H         21.44850         4.00151         4.33788
H         23.13851        61.82918         4.63146
H         20.98505        60.64903         4.21973
H         25.61543         3.72194         3.21060
H         26.73656         5.64337         2.06701
H         26.57533        58.71858         3.37823
H         25.30939        60.70786         4.16873
H         26.95272         7.70558        -0.11702
H         29.09973         9.73234         0.75357
H         28.99921        54.96157         1.48552
H         27.80167        56.76877         2.42337
H         30.30424        11.89146         0.06717
H         31.17548        13.90276        -1.23747
H         31.57426        50.63230         0.74489
H         30.40818        52.68175         0.84317
H         32.78429        16.25413        -1.24957
H         33.96935        18.29741        -0.84442
H         33.99976        46.52818         0.39666
H         32.84312        48.67184         0.17100
H         35.20178        20.39848        -0.31723
H         36.38529        22.50471         0.19981
H         36.37454        42.14253         0.92075
H         35.19580        44.35795         0.64561
H         37.57380        24.65163         0.68962
H         38.75051        26.77130         1.12049
H         38.68791        37.86599         1.14954
H         37.51804        39.98504         1.15089
H         39.99221        28.97437         1.42746
H         41.09548        31.17237         2.07760
H         41.10820        33.60629         1.61152
H         39.86025        35.73786         1.03390
