         430
 CSIRO Nanostructure Databank - Neutral Graphene Oxide Data Set
C         27.97085        27.39538        -0.89362
C         27.87596        28.77136        -0.29359
C         26.69401        29.55768        -0.77980
C         27.92352        31.66801        -0.54569
C         26.72266        30.90579        -0.83988
C         27.91800        33.07903        -0.48298
C         26.70207        33.83959        -0.57287
C         27.90873        35.95693        -0.33463
C         26.69681        35.20425        -0.50238
C         27.90353        37.36773        -0.23793
C         26.70925        38.15793        -0.47659
C         27.81349        40.17033         0.47848
C         26.67478        39.48821        -0.23917
C         27.85110        41.67438         0.32306
C         26.64240        42.39798         0.33599
C         27.85148        44.50858         0.34807
C         26.63252        43.78274         0.32715
C         27.86068        45.92506         0.42714
C         30.41075        27.40814        -0.65016
C         29.15952        26.75529        -0.98285
C         30.39762        28.81607        -0.43239
C         29.16984        29.53580        -0.42104
C         30.39627        31.66595        -0.28491
C         29.15901        30.94464        -0.40145
C         30.38637        33.08831        -0.23560
C         29.14974        33.80334        -0.31159
C         30.37595        35.93948        -0.11542
C         29.14252        35.22499        -0.24107
C         30.36742        37.36538        -0.02441
C         29.13072        38.08289        -0.01323
C         30.33772        40.21746         0.22186
C         29.12616        39.48980         0.17369
C         30.34029        41.65730         0.31163
C         29.08430        42.36899         0.31830
C         30.31911        44.52762         0.41458
C         29.08938        43.79921         0.34059
C         30.29337        45.94074         0.53301
C         29.05761        46.61440         0.54185
C         32.93299        24.62647        -0.84490
C         31.72026        25.29666        -0.85986
C         32.87628        27.39313        -0.35946
C         31.65183        26.69371        -0.62544
C         32.86358        28.81209        -0.21950
C         31.63575        29.52920        -0.28661
C         32.86400        31.66308        -0.06394
C         31.62625        30.95031        -0.19825
C         32.85379        33.09031        -0.04246
C         31.62250        33.80163        -0.11865
C         32.84422        35.94911         0.00592
C         31.61077        35.22893        -0.07373
C         32.83195        37.37339         0.05505
C         31.59158        38.08714         0.06541
C         32.80904        40.23498         0.16901
C         31.57786        39.50937         0.14648
C         32.81322        41.65696         0.24878
C         31.56301        42.37943         0.32972
C         32.79490        44.55283         0.35283
C         31.56785        43.81079         0.39567
C         32.81365        45.94050         0.39793
C         31.57520        46.69452         0.81767
C         32.77368        48.78592         0.17708
C         31.60246        48.12531         0.35049
C         35.42712        23.08154        -0.35451
C         35.47317        24.57008        -0.63526
C         34.13757        25.28834        -0.53785
C         35.33762        27.40266         0.01430
C         34.11377        26.67717        -0.28963
C         35.30427        28.79590         0.15688
C         34.09093        29.52303        -0.00122
C         35.34027        31.66295         0.18169
C         34.08527        30.94442         0.04835
C         35.31676        33.11059         0.11324
C         34.09633        33.80854         0.02915
C         35.30891        35.96843         0.05994
C         34.08337        35.24629         0.02456
C         35.29934        37.39418         0.11039
C         34.05751        38.09322         0.10456
C         35.26782        40.23602         0.11114
C         34.04215        39.52051         0.13669
C         35.25526        41.65374         0.07455
C         34.05226        42.35085         0.18494
C         35.21200        44.51494        -0.42747
C         34.12454        43.83694         0.41894
C         35.22669        45.99583        -0.12728
C         34.05763        46.67561         0.21034
C         35.27502        48.85021         0.07395
C         34.05484        48.12019         0.19764
C         35.33243        50.27484         0.19003
C         37.84979        23.09521         0.03918
C         36.55674        22.41376        -0.05389
C         37.84918        24.50039         0.14234
C         36.51667        25.20183         0.29365
C         37.80731        27.38398         0.22588
C         36.58132        26.69967         0.14936
C         37.82945        28.81765         0.29553
C         36.53160        29.50447         0.66672
C         37.79986        31.71104         0.71160
C         36.52817        30.97807         0.38109
C         37.76895        33.12139         0.19755
C         36.56735        33.82288         0.08774
C         37.75898        35.99912         0.12860
C         36.55854        35.26990         0.03249
C         37.76578        37.40797         0.30118
C         36.52351        38.12313         0.22135
C         37.72990        40.28022         0.39484
C         36.51322        39.53873         0.20186
C         37.77409        41.65898         0.24204
C         36.54567        42.33562        -0.31202
C         37.74055        44.50205        -0.11887
C         36.54088        43.82991        -0.17883
C         37.77633        45.95095        -0.44913
C         36.44194        46.73083        -0.43783
C         37.74504        48.84849        -0.21096
C         36.50664        48.17031        -0.17872
C         37.76950        50.27555        -0.09234
C         36.52286        50.95118         0.08790
C         40.27400        20.24225        -0.07259
C         39.12534        20.93996        -0.17999
C         40.30473        23.09175         0.11646
C         39.07614        22.37974         0.02258
C         40.30230        24.51938         0.13580
C         39.06124        25.22768         0.16994
C         40.28345        27.36985         0.20545
C         39.05996        26.66319         0.20683
C         40.29817        28.80835         0.16239
C         39.03285        29.52340         0.23845
C         40.25683        31.65487         0.19153
C         39.06213        30.96566         0.32567
C         40.29617        33.08657         0.22198
C         39.03602        33.79027        -0.02806
C         40.28314        35.98340         0.42595
C         39.04822        35.32656        -0.01360
C         40.23027        37.40454         0.67113
C         38.98623        38.08544         0.55942
C         40.24569        40.29872         0.88639
C         38.92823        39.52936         0.81130
C         40.24402        41.73977         0.62127
C         38.98661        42.42422         0.41037
C         40.15676        44.65833         0.61154
C         38.96110        43.81582         0.22268
C         40.26352        45.89417        -0.31243
C         39.00125        46.71333        -0.27835
C         40.24366        48.83608        -0.22647
C         38.99812        48.10953        -0.27941
C         40.24866        50.25181        -0.18664
C         39.01342        50.98227        -0.13529
C         40.26161        53.08750        -0.12703
C         39.06780        52.41068        -0.11213
C         42.78302        20.23791        -0.18602
C         41.55085        20.89789         0.37212
C         42.76271        23.07981         0.04658
C         41.55233        22.38898         0.13069
C         42.77322        24.52238         0.05819
C         41.53319        25.23450         0.13276
C         42.75841        27.37325         0.17550
C         41.52699        26.65940         0.17202
C         42.76332        28.80266         0.15722
C         41.51611        29.49465         0.09164
C         42.78926        31.70173         0.14925
C         41.52286        30.96161        -0.23513
C         42.76671        33.09512         0.31101
C         41.49374        33.80892         0.30664
C         42.71630        35.90286         0.88533
C         41.46243        35.23432         0.50610
C         42.72107        37.42209         0.95560
C         41.44893        38.14217         0.79111
C         42.71468        40.24644         0.51010
C         41.49094        39.54331         0.72627
C         42.71602        41.67171         0.46030
C         41.47890        42.39119         0.54512
C         42.76213        44.58198         0.35613
C         41.48158        43.87358         0.64036
C         42.73611        46.02171        -0.00159
C         41.51153        46.70810        -0.09104
C         42.73311        48.82889        -0.17500
C         41.49363        48.11823        -0.18920
C         42.74206        50.25972        -0.17548
C         41.49894        50.96339        -0.16917
C         42.74378        53.07352        -0.14067
C         41.50542        52.38358        -0.14577
C         43.93558        20.92230        -0.33338
C         45.22578        23.04652        -0.09837
C         44.01583        22.35911        -0.10488
C         45.24967        24.49761         0.03068
C         43.99300        25.22736         0.04148
C         45.21229        27.38136         0.17199
C         43.99563        26.65837         0.12592
C         45.21835        28.78654         0.27075
C         44.00020        29.51348         0.20790
C         45.25259        31.65261         0.22859
C         44.02932        30.96909         0.18955
C         45.27732        33.14675         0.01209
C         43.99538        33.83805         0.40719
C         45.20524        35.97939         0.71431
C         43.99722        35.21240         0.63955
C         45.21188        37.38012         0.64191
C         43.97015        38.12852         0.62583
C         45.17113        40.17674        -0.15263
C         43.93524        39.48964         0.36773
C         45.17619        41.64789         0.17741
C         43.99508        42.36687         0.33217
C         45.18247        44.50549        -0.05609
C         44.02112        43.81583         0.19207
C         45.16983        45.92027        -0.57797
C         43.94680        46.70242        -0.18611
C         45.22085        48.81941        -0.23647
C         43.96308        48.11419        -0.23087
C         45.23221        50.23086        -0.15829
C         43.97886        50.96772        -0.16133
C         43.94295        52.38553        -0.14842
C         47.68146        23.02186        -0.14216
C         46.50420        22.38244        -0.29633
C         47.74423        24.43654         0.36122
C         46.44983        25.17188         0.10983
C         47.69702        27.29854         0.66602
C         46.51611        26.66285        -0.07080
C         47.67719        28.79737         0.45257
C         46.49918        29.49211         0.36228
C         47.69139        31.66418         0.55540
C         46.50340        30.96037         0.34950
C         47.70198        33.10759         0.68709
C         46.50281        33.81421         0.56688
C         47.74227        35.95714         0.74037
C         46.46796        35.22973         1.05088
C         47.75255        37.44642         0.94572
C         46.45469        38.12287         0.55758
C         47.69779        40.18663         0.05591
C         46.45636        39.47305         0.24610
C         47.71675        41.59184        -0.12181
C         46.47212        42.31976         0.21852
C         47.70624        44.50750        -0.36138
C         46.47713        43.84322         0.08008
C         47.67267        45.93755        -0.44205
C         46.45417        46.66007        -0.33350
C         47.70250        48.77020        -0.13651
C         46.45706        48.07432        -0.24783
C         47.67766        50.18484        -0.02988
C         46.49130        50.88987        -0.05615
C         50.15511        24.63702        -0.50399
C         48.96599        25.24070        -0.06435
C         50.18923        27.34227         0.18908
C         48.98282        26.62395         0.21855
C         50.18665        28.72600         0.78911
C         48.97738        29.54382         0.31811
C         50.22465        31.64464         0.88993
C         48.91674        30.90267         1.01427
C         50.20247        33.10824         1.29280
C         48.92986        33.81589         0.89271
C         50.19688        35.94730         0.55334
C         48.94331        35.24257         0.74503
C         50.18006        37.33548         0.25228
C         48.96813        38.08437         0.32480
C         50.09934        40.14796        -0.46510
C         48.93076        39.46128        -0.01146
C         50.10438        41.54100        -0.70246
C         48.90074        42.28988        -0.45187
C         50.09052        44.43332        -0.88047
C         48.91367        43.75699        -0.53816
C         50.14265        45.94281        -0.94769
C         48.89819        46.64624        -0.48460
C         50.21321        48.61102         0.07502
C         48.93609        48.02577        -0.21508
C         51.33918        25.36154        -0.59233
C         52.65781        27.45000        -0.10835
C         51.39941        26.71130        -0.18228
C         52.65642        28.84111         0.24257
C         51.45085        29.51178         0.55373
C         52.71017        31.62646         0.94268
C         51.41077        30.93034         0.77871
C         52.71634        33.15548         0.97748
C         51.44237        33.85875         0.86351
C         52.66850        35.92225         0.25312
C         51.43143        35.21963         0.53841
C         52.62514        37.29789        -0.13653
C         51.38600        37.97156        -0.18915
C         52.60248        40.08047        -1.05437
C         51.29165        39.33340        -0.73328
C         52.55383        41.55536        -1.03177
C         51.35486        42.23429        -0.99617
C         52.63025        44.59267        -1.37371
C         51.28088        43.69391        -1.43255
C         52.57425        45.71376        -0.33777
C         51.38790        46.48580        -0.27669
C         51.35790        47.83901         0.14652
C         55.08982        27.49296        -0.35306
C         53.88499        26.81119        -0.39256
C         55.12416        28.87728        -0.04954
C         53.90883        29.56467         0.23420
C         55.17176        31.66431         0.52510
C         53.95164        30.94576         0.55307
C         55.17113        33.11754         0.56811
C         53.96243        33.84218         0.61672
C         55.14458        35.94014         0.07292
C         53.91583        35.23619         0.31935
C         55.12170        37.31079        -0.28787
C         53.86640        38.00515        -0.43216
C         55.11173        40.03711        -1.17136
C         53.86015        39.35304        -0.81358
C         55.11112        41.57446        -1.22134
C         53.83904        42.29979        -0.76209
C         55.10725        44.35668        -0.58464
C         53.94209        43.72288        -1.33927
C         54.99330        45.54433         0.11644
C         53.75399        46.18928         0.25745
C         56.35344        29.59217         0.00122
C         56.37431        30.94043         0.27058
C         56.38274        33.85741         0.40259
C         56.36901        35.21087         0.19048
C         56.34691        38.01387        -0.57081
C         56.36177        39.29942        -1.00368
C         56.36482        42.31728        -1.00530
C         56.34274        43.62935        -0.62860
O         52.67646        45.33080        -2.57719
O         46.65504        43.18279         1.39321
O         52.82081        32.34397         2.22905
O         37.05991        46.27223        -1.70446
O         39.48802        39.93754         2.10072
O         42.72657        36.60092         2.17721
O         55.01086        40.81096        -2.43503
O         39.13459        34.57735        -1.27220
O         42.29566        44.35894         1.76757
O         51.78872        39.46685        -2.10464
O         47.55503        27.07936         2.09918
H         48.27399        27.60951         2.52622
O         36.04373        24.95344         1.65288
H         36.63966        25.42559         2.27140
O         47.86877        24.33647         1.82500
H         47.74023        25.25462         2.18187
O         41.61639        20.71153         1.83443
H         42.43740        21.15081         2.14317
O         40.36740        45.33577        -1.66094
H         40.25386        46.06507        -2.30624
O         34.89811        44.35932        -1.84390
H         35.51859        44.96015        -2.32167
O         37.84733        31.79758         2.20600
H         37.10183        32.37404         2.48238
O         46.82766        26.87599        -1.49701
H         46.07867        26.51793        -2.01952
O         53.91123        42.43062         0.69051
H         53.79387        41.54443         1.09251
O         36.46980        29.38530         2.14341
H         37.11068        30.05284         2.49659
O         50.20525        33.09017         2.78224
H         51.12098        32.80725         3.03508
O         49.16070        29.81950        -1.09526
H         48.93784        29.00713        -1.59754
O         50.04463        28.51741         2.23314
H         50.87644        28.11251         2.55772
O         45.07662        45.77735        -2.04747
H         45.23485        46.66100        -2.44306
O         36.61640        42.12724        -1.78109
H         35.89800        42.68703        -2.16701
O         47.85975        37.63442         2.43127
H         47.77705        38.59653         2.60923
O         31.64979        46.76340         2.29697
H         32.50124        47.19696         2.52044
O         54.37944        43.58145        -2.69437
H         53.93144        44.33952        -3.16961
O         41.51735        31.01837        -1.71831
H         41.27706        31.93601        -1.97175
O         48.70032        30.71464         2.44065
H         48.99444        31.54576         2.88893
O         35.94382        24.75991        -1.99789
H         35.29485        24.34695        -2.60432
O         45.37178        33.32048        -1.46399
H         44.72252        32.70644        -1.87035
O         45.10898        40.10342        -1.62317
H         45.21083        39.16186        -1.87785
O         34.59143        44.00430         1.79602
H         33.91213        43.62694         2.39375
O         50.25823        46.34121        -2.35342
H         51.19842        46.09635        -2.63703
O         27.57026        39.94751         1.91923
H         27.56090        38.97685         2.06202
O         27.65891        28.56217         1.15593
H         28.43702        28.06834         1.49243
O         39.87904        45.13440         1.94561
H         40.72996        45.09017         2.44570
O         50.96667        43.58523        -2.84670
H         51.58488        44.24320        -3.28767
O         46.44962        35.16156         2.53655
H         46.82501        36.01750         2.86141
H         27.03837        26.87217        -1.15339
H         25.76950        29.01042        -1.01786
H         25.81707        31.44353        -1.15467
H         25.74337        33.31534        -0.68229
H         25.73585        35.73347        -0.55741
H         25.82901        37.66960        -0.91891
H         25.75876        40.05252        -0.46496
H         25.68532        41.86025         0.37672
H         25.67947        44.33053         0.34411
H         26.90554        46.46931         0.43920
H         29.18071        25.71931        -1.34973
H         29.02750        47.70606         0.65910
H         32.93749        23.54972        -1.06526
H         30.80740        24.72536        -1.07345
H         32.74517        49.85878        -0.06270
H         30.66156        48.68917         0.28296
H         34.48102        22.52812        -0.44544
H         34.41276        50.84463         0.37957
H         36.51553        21.32763         0.11213
H         36.50846        52.04446         0.19001
H         40.28157        19.15420        -0.23759
H         38.20068        20.41501        -0.45977
H         40.27337        54.18697        -0.11650
H         38.13553        52.99061        -0.09306
H         42.75607        19.15289        -0.36868
H         42.74239        54.17304        -0.12942
H         44.83699        20.38700        -0.66410
H         44.87898        52.95982        -0.14724
H         48.61730        22.46055        -0.27572
H         46.51097        21.32315        -0.59018
H         48.62144        50.74186         0.04670
H         46.53219        51.98492         0.01417
H         50.17344        23.56973        -0.76349
H         50.27466        49.67208         0.35309
H         52.24420        24.84189        -0.93364
H         52.28317        48.31796         0.49695
H         56.03013        26.96513        -0.56613
H         53.89818        25.74325        -0.64708
H         55.87483        45.95995         0.62832
H         53.71502        47.08229         0.89849
H         57.29163        29.05357        -0.19516
H         57.34085        31.46056         0.27565
H         57.35161        33.34358         0.44572
H         57.33084        35.72639         0.07674
H         57.30550        37.48963        -0.46957
H         57.31128        39.78175        -1.27068
H         57.32527        41.79264        -1.11084
H         57.27718        44.14122        -0.34938
