         324
 CSIRO Nanostructure Databank - Neutral Graphene Oxide Data Set
C         30.61854        57.21433        -1.53776
C         30.60026        58.61263        -1.39761
C         29.51339        59.39466        -1.86773
C         30.67842        61.48405        -1.39849
C         29.62235        60.80512        -1.95309
C         32.93530        52.76973        -0.99776
C         32.96188        54.25034        -1.18551
C         31.75348        55.04742        -1.34255
C         32.97871        57.16236        -0.82049
C         31.78393        56.44671        -1.24615
C         32.94718        58.59619        -0.70558
C         31.78068        59.29763        -0.90810
C         32.97186        61.45033        -0.35793
C         31.65245        60.75147        -0.51485
C         35.23616        48.50535         0.00565
C         35.19931        49.88644         0.05617
C         33.87056        50.56801        -0.24133
C         35.09185        52.75976         0.21963
C         33.95814        52.06509        -0.45428
C         35.13129        54.25071         0.16392
C         34.16659        55.01471        -0.65616
C         35.28335        57.10167         0.15025
C         34.11880        56.46008        -0.39365
C         35.23227        58.59824         0.39234
C         34.27727        59.30246        -0.57536
C         35.37645        61.44030         0.09674
C         34.16544        60.77748        -0.24478
C         37.73400        44.26688         0.17117
C         37.70149        45.65791         0.25518
C         36.47327        46.38183         0.09906
C         37.62433        48.45480         0.77248
C         36.42249        47.75214         0.26578
C         37.59851        49.96353         0.88029
C         36.36372        50.63860         0.42853
C         37.50920        52.74535         0.95513
C         36.35488        52.02655         0.49760
C         37.27398        54.13069         1.22961
C         36.35635        54.94970         0.58273
C         37.77899        57.07681         0.35328
C         36.42258        56.38518         0.54248
C         37.77001        58.58530         0.51305
C         36.58445        59.28713         0.38140
C         37.80709        61.41843         0.47201
C         36.58513        60.73138         0.32701
C         40.22725        39.98809         0.03702
C         40.19753        41.42432         0.02568
C         38.98447        42.13087         0.14195
C         40.19505        44.27031         0.17998
C         38.96236        43.54497         0.17405
C         40.17134        45.69261         0.31922
C         38.93738        46.39557         0.41744
C         40.12771        48.54592         0.77623
C         38.93034        47.79288         0.64040
C         40.10226        50.00404         0.93002
C         38.88047        50.71975         0.92306
C         40.08768        52.90028         1.15754
C         38.82207        52.14561         1.05401
C         40.21988        54.29324         1.33884
C         39.11726        55.21661         1.51298
C         40.33382        57.10567         0.54941
C         39.03639        56.45676         0.93836
C         40.27672        58.60577         0.69130
C         39.02951        59.28289         0.59411
C         40.26623        61.41381         0.66590
C         39.02973        60.72127         0.59965
C         42.66315        35.69773         0.19370
C         42.61951        37.10916         0.16550
C         41.42918        37.84518         0.10567
C         42.69253        39.98179        -0.12059
C         41.42276        39.27032         0.04136
C         42.64566        41.42206        -0.58277
C         41.41831        42.14908        -0.09438
C         42.67108        44.26839        -0.06155
C         41.43343        43.55256         0.03097
C         42.62430        45.72566        -0.00523
C         41.37995        46.44190         0.37397
C         42.62000        48.53848         0.93489
C         41.35768        47.82183         0.64231
C         42.61918        50.04577         1.04502
C         41.32870        50.77635         0.94491
C         42.62191        52.94709         0.68148
C         41.33653        52.16480         1.01292
C         42.77851        54.31203         1.33431
C         41.49826        55.00542         1.52382
C         42.77840        57.23144         1.29569
C         41.49114        56.50522         1.32848
C         42.74365        58.58938         1.11701
C         41.49078        59.29607         0.85304
C         42.72738        61.45059         0.74902
C         41.48689        60.73683         0.79148
C         45.17386        32.87204         0.16022
C         43.93241        33.55725         0.14376
C         45.12458        35.70085        -0.09881
C         43.87091        34.95553         0.13213
C         45.19207        37.12439         0.29212
C         43.87617        37.87999         0.34663
C         45.17887        39.90960        -0.50900
C         43.87604        39.32276         0.00659
C         45.19298        41.43870        -0.52596
C         43.93219        42.17911        -0.34426
C         45.19776        44.30548        -0.08197
C         43.92358        43.56886        -0.18173
C         45.20692        45.71917         0.12212
C         43.94980        46.46101         0.12922
C         45.20874        48.57962         0.63943
C         43.92338        47.80603         0.75964
C         45.07656        50.03534         0.36942
C         43.88083        50.78124         0.77656
C         45.16009        52.87581         0.62519
C         43.91110        52.15962         0.71744
C         45.22602        54.25651         1.16394
C         43.95616        55.00001         1.37809
C         45.29106        57.22511         1.58665
C         43.97463        56.47144         1.86444
C         45.25120        58.65956         1.22841
C         43.96401        59.40825         1.48457
C         45.17741        61.47836         0.73233
C         43.95356        60.80983         0.91691
C         46.39725        33.50437         0.11193
C         47.70025        35.71468         0.13000
C         46.50132        34.93668        -0.13292
C         47.70558        37.14156         0.13806
C         46.45760        37.83625         0.13683
C         47.64953        40.05386         0.47616
C         46.38594        39.30682         0.22097
C         47.74328        41.49049         0.12708
C         46.48580        42.18182        -0.27306
C         47.74175        44.31684        -0.22956
C         46.41511        43.62579        -0.07440
C         47.68305        45.79537        -0.00793
C         46.43447        46.45977         0.14712
C         47.61863        48.61602         0.01467
C         46.42257        47.87458         0.20548
C         47.59318        50.02526        -0.03598
C         46.34177        50.79392        -0.02373
C         47.61267        52.94269         0.20507
C         46.36938        52.24314         0.28060
C         47.71151        54.34224         0.47170
C         46.55249        54.98664         1.13701
C         47.71408        57.22438         0.70926
C         46.57709        56.48026         1.27895
C         47.67096        58.62935         0.71867
C         46.41860        59.33674         0.93371
C         47.62567        61.47975         0.59429
C         46.41685        60.79108         0.75782
C         48.91309        37.87156         0.28988
C         50.16612        40.04677         0.42470
C         48.92922        39.28400         0.81845
C         50.18695        41.44878         0.39161
C         48.90572        42.17347         0.34996
C         50.17125        44.40614         0.47369
C         48.84127        43.66885         0.61848
C         50.16535        45.80747         0.00686
C         48.88721        46.50639        -0.07725
C         50.08656        48.64898        -0.29738
C         48.86198        47.92330        -0.15257
C         50.08981        50.02494        -0.30712
C         48.81217        50.73292        -0.34682
C         50.11876        52.93829        -0.28998
C         48.80062        52.25917        -0.31052
C         50.03488        54.39988        -0.44826
C         48.83342        55.08844         0.08882
C         50.07848        57.25020         0.08318
C         48.88810        56.52526         0.27411
C         50.08704        58.65992         0.29579
C         48.86858        59.36494         0.49033
C         50.10545        61.48584         0.42950
C         48.87610        60.79996         0.51522
C         51.39344        42.16497         0.23702
C         52.64407        44.37660        -0.16115
C         51.47373        43.62841         0.31590
C         52.62038        45.75765        -0.28636
C         51.35443        46.46494        -0.21820
C         52.59633        48.66714        -0.52422
C         51.32152        47.88703        -0.71432
C         52.58435        50.03491        -0.47593
C         51.35659        50.79100        -0.04313
C         52.57557        52.97330        -0.47453
C         51.30897        52.26235        -0.40177
C         52.59609        54.39248        -0.44496
C         51.33458        55.14649        -0.62652
C         52.60490        57.21081         0.08403
C         51.34015        56.66466        -0.52627
C         52.56382        58.60982         0.49813
C         51.31720        59.37526         0.34816
C         52.60699        61.48683         0.38138
C         51.33309        60.78424         0.40734
C         53.82325        46.52836        -0.54601
C         55.07180        48.67293        -0.64405
C         53.84258        47.91241        -0.62227
C         55.07529        50.05288        -0.65279
C         53.79920        50.79904        -0.85237
C         55.02928        52.94022        -0.39132
C         53.80437        52.25520        -0.49996
C         55.04227        54.36531        -0.23001
C         53.81577        55.08572        -0.24773
C         55.06866        57.23715         0.07602
C         53.80777        56.52314         0.00218
C         55.10380        58.64573         0.18971
C         53.88563        59.38194         0.55921
C         55.10582        61.62877         0.36266
C         53.81106        60.84859         0.39442
C         56.28303        50.82186        -0.53392
C         57.58841        52.89406        -0.17706
C         56.27329        52.19005        -0.41352
C         57.53131        54.39541        -0.31683
C         56.28746        55.08717        -0.20309
C         57.50576        57.23189        -0.31394
C         56.28817        56.51510        -0.14843
C         57.51028        58.65810        -0.30875
C         56.30340        59.37456        -0.04313
C         57.50147        61.48376        -0.28525
C         56.32691        60.81126        -0.01529
C         58.71336        55.09479        -0.48413
C         59.92576        57.23150        -0.75767
C         58.73450        56.52164        -0.52842
C         59.93975        58.64785        -0.78740
C         58.72260        59.36479        -0.55133
C         59.92788        61.47938        -0.81991
C         58.72246        60.78994        -0.56178
C         61.12917        59.38116        -1.03751
C         61.11178        60.77304        -1.05506
O         44.76739        48.01007         1.92183
O         46.02035        41.87670        -1.67497
O         53.24839        58.88132         1.77601
O         46.11864        54.30963         2.35351
O         45.39187        50.33350        -1.04303
O         41.29757        55.94561         2.65195
O         53.66332        50.89985        -2.47339
O         34.54869        53.55941         1.34466
O         37.39814        49.11239         2.06791
O         46.27894        56.94434         2.64173
O         38.03468        54.72095         2.22840
O         48.61764        51.56726        -1.58776
O         46.62452        39.88825         1.55553
O         34.09574        54.65378        -2.06628
O         45.77114        35.41881        -1.33734
O         43.26077        46.41050        -1.16817
O         50.52438        54.77729        -1.79827
O         44.55428        37.48345         1.58611
O         51.00215        44.18175         1.64957
O         42.60139        49.19909         2.24820
O         43.81259        56.43988         3.29335
H         44.70646        56.27497         3.67217
O         45.26592        39.43673        -1.87543
H         45.56552        40.19588        -2.42851
O         58.61565        52.33741        -1.00738
H         58.38147        52.51378        -1.94144
O         51.20521        47.76944        -2.17785
H         51.59308        48.58036        -2.58016
O         43.88423        59.57560         2.93753
H         44.73764        59.94901         3.24260
O         40.64724        56.82359        -0.87234
H         41.22627        57.54452        -1.20085
O         54.99017        62.78166        -0.47949
H         54.85696        62.47807        -1.40050
O         31.04155        60.75504         0.83336
H         30.21404        60.23169         0.77498
O         51.44154        50.82887         1.43800
H         51.58294        49.91106         1.75590
O         34.90206        59.21167        -1.88443
H         34.27554        59.56252        -2.55063
O         33.21210        49.93132        -1.34016
H         33.72825        50.10433        -2.15371
O         48.99248        39.13815         2.27834
H         48.06704        39.23972         2.60880
O         51.37005        57.18369        -1.89838
H         50.86166        56.53577        -2.44270
O         34.67002        58.77314         1.72140
H         35.24889        58.31636         2.36677
O         53.48597        49.58658        -2.98816
H         54.40587        49.23036        -3.06255
O         48.43476        43.79713         1.99818
H         49.25033        43.70523         2.54272
O         42.50276        41.35485        -2.05039
H         42.50144        42.27582        -2.38823
O         42.45525        53.26901        -0.74898
H         41.59667        53.73190        -0.85691
O         48.15782        44.09406        -1.61332
H         47.39651        44.28593        -2.20081
O         37.94265        56.85991        -1.09799
H         38.90445        56.93984        -1.31808
H         29.72829        56.70184        -1.93245
H         28.63210        58.89164        -2.29043
H         30.73978        62.57945        -1.47407
H         28.83852        61.36031        -2.48997
H         32.05586        52.22450        -1.37636
H         30.78811        54.53750        -1.48023
H         32.94422        62.53274        -0.15154
H         34.32818        47.96320        -0.29814
H         33.21093        50.40001         0.65627
H         35.38044        62.53829         0.18268
H         36.79024        43.70944         0.07771
H         35.56731        45.83186        -0.19664
H         37.81677        62.51818         0.43930
H         39.27294        39.44470         0.10934
H         38.03641        41.57557         0.19315
H         40.26367        62.51290         0.61661
H         41.71222        35.14361         0.17730
H         40.46507        37.31408         0.10720
H         42.70613        62.52350         0.50266
H         45.15418        31.78152         0.30188
H         43.00374        32.97962         0.24975
H         45.17094        62.55133         0.48585
H         47.31653        32.94274         0.33193
H         48.62306        35.18069         0.40184
H         47.60934        62.57758         0.52125
H         49.85975        37.31105         0.32208
H         51.11915        39.49742         0.39112
H         50.11167        62.58590         0.43940
H         52.32668        41.60115         0.08680
H         53.56857        43.82202        -0.38330
H         52.58909        62.58479         0.30375
H         54.77860        45.98230        -0.58941
H         56.02707        48.13032        -0.56673
H         55.28073        62.02434         1.40382
H         57.24556        50.28992        -0.48999
H         57.89895        52.67357         0.88514
H         57.50341        62.58388        -0.27551
H         59.65560        54.53804        -0.59386
H         60.86210        56.67814        -0.92334
H         59.93076        62.57869        -0.82973
H         62.06756        58.83786        -1.21919
H         62.04142        61.32544        -1.25210
