         404
 CSIRO Nanostructure Databank - Neutral Graphene Oxide Data Set
C          1.15767         3.74815         1.91662
C         -0.01042         4.40961         2.27552
C          1.08122         6.57001         2.00098
C         -0.06155         5.81031         2.29797
C          0.94931         8.09230         1.94822
C          0.14717         8.52759         0.74316
C          1.25599        10.72200         0.70881
C          0.26760         9.76693         0.22462
C          1.28884        12.08276         0.28005
C          0.18999        12.64185        -0.44238
C          1.33673        14.78032        -0.67625
C          0.20009        13.93810        -0.88489
C          1.34995        16.13991        -1.11068
C          0.14055        16.82645        -1.49303
C          1.38555        18.89628        -2.16153
C          0.12979        18.11179        -1.91821
C          1.33028        20.35463        -1.71629
C          0.10264        20.97425        -1.30245
C          1.12852        23.20614        -1.24686
C          0.02819        22.28927        -0.93997
C          1.16046        24.58616        -0.68399
C          0.00506        25.29599        -0.44802
C          1.15558        27.45202        -0.12475
C         -0.00462        26.69516        -0.17891
C          1.16366        28.90849        -0.15575
C         -0.03098        29.62801         0.00381
C          1.12013        31.74837        -0.32133
C         -0.04721        31.01827        -0.05810
C          1.03390        33.20788        -0.57748
C         -0.12384        34.00588        -0.13092
C          1.07728        36.14818        -0.33206
C         -0.09496        35.37006        -0.06027
C          1.10843        37.53895        -0.11212
C          3.52557         3.81042         1.18669
C          2.32953         4.48157         1.60055
C          3.48244         6.68904         1.35911
C          2.27868         5.90328         1.69851
C          3.60086         8.08007         1.90728
C          2.28275         8.84529         2.02215
C          3.29377        11.16268         1.92944
C          2.24122        10.28249         1.61993
C          3.57105        12.38155         1.25762
C          2.43433        12.91621         0.53626
C          3.62416        15.08079         0.25492
C          2.45016        14.23808         0.03369
C          3.74405        16.26732        -0.58713
C          2.59665        16.84992        -1.16535
C          3.80021        18.96465        -1.55641
C          2.62855        18.21711        -1.62532
C          3.80066        20.40796        -1.64474
C          2.51569        21.08472        -1.69533
C          3.72842        23.33984        -1.54866
C          2.45146        22.55558        -1.64890
C          3.72097        24.66126        -0.90314
C          2.45874        25.21084        -0.39640
C          3.68622        27.49201        -0.26689
C          2.44008        26.74937        -0.06604
C          3.62226        28.90871        -0.38057
C          2.39376        29.63005        -0.34058
C          3.58540        31.84612        -0.57992
C          2.36887        31.07412        -0.46232
C          3.60610        33.24758        -0.57295
C          2.34089        33.96763        -0.78456
C          3.63477        36.18674        -0.40203
C          2.31642        35.46197        -0.69688
C          3.56241        37.59225         0.05301
C          2.30328        38.24356         0.03439
C          5.88272         3.83800         0.44181
C          4.69923         4.49085         0.82378
C          6.00449         6.66299         0.85057
C          4.69753         5.97381         0.84813
C          6.04912         8.06005         1.20425
C          4.91266         8.74960         1.70034
C          6.18605        10.86931         1.63357
C          5.08929        10.09455         2.07013
C          6.13304        12.30354         1.40221
C          4.88990        12.98726         1.20750
C          6.23817        15.01116         0.40708
C          4.95549        14.40259         0.80167
C          6.28461        16.27414        -0.23535
C          5.05603        16.82836        -0.84269
C          6.30930        19.03842        -1.20842
C          5.08069        18.27296        -1.39218
C          6.25921        20.41991        -1.37037
C          5.01215        21.10793        -1.55290
C          6.27006        23.31053        -1.16248
C          5.04601        22.59196        -1.59566
C          6.20909        24.69856        -0.87931
C          4.92236        25.36713        -0.71565
C          6.16750        27.46549        -0.15881
C          4.89531        26.76246        -0.38194
C          6.13984        28.98880        -0.14854
C          4.88102        29.64123        -0.58091
C          6.12321        31.87460        -0.30145
C          4.88366        31.15230        -0.66069
C          6.07443        33.25601        -0.08677
C          4.82075        33.98577        -0.26946
C          5.94581        36.04830         0.63407
C          4.80953        35.36743        -0.09416
C          5.98375        37.55415         0.47212
C          4.75100        38.25258         0.37420
C          8.16085         3.93443        -0.48900
C          7.07354         4.56085         0.09294
C          8.40596         6.67879         0.30752
C          7.12890         5.99264         0.40618
C          8.52448         8.01333         0.90471
C          7.30964         8.72798         1.23447
C          8.63463        10.82760         1.64351
C          7.36687        10.12331         1.41977
C          8.64801        12.28260         1.34907
C          7.39558        12.95883         1.14508
C          8.70638        14.94343         0.39719
C          7.44879        14.30739         0.66157
C          8.74043        16.27009        -0.12788
C          7.51197        16.93339        -0.47299
C          8.74682        18.98529        -1.03325
C          7.53632        18.31646        -0.94190
C          8.82453        20.42116        -1.37000
C          7.51748        21.18453        -1.48775
C          8.73120        23.33563        -1.07089
C          7.50448        22.63311        -1.20249
C          8.67658        24.74054        -0.90927
C          7.43933        25.41609        -0.73899
C          8.64246        27.58383        -0.41900
C          7.44740        26.82147        -0.45113
C          8.61063        29.02093        -0.24792
C          7.39679        29.73409        -0.27958
C          8.58155        31.86712         0.00731
C          7.36333        31.15726        -0.22162
C          8.54080        33.28732         0.17713
C          7.29529        33.97697         0.17010
C          8.46602        36.10341         0.54349
C          7.27475        35.38108         0.39214
C          8.44682        37.55173         0.66504
C          7.18708        38.23173         0.59949
C         10.61423         3.96706        -1.16979
C          9.31135         4.72977        -1.04200
C         10.75769         6.72056        -0.42820
C          9.45903         6.05449        -0.33272
C         10.91226         7.96971         0.46293
C          9.75906         8.60708         1.12056
C         11.16671        10.77114         1.50657
C          9.89958         9.99633         1.65791
C         11.12948        12.28053         1.68096
C          9.87273        12.93442         1.16833
C         11.20153        14.92400         0.48712
C          9.93988        14.27782         0.68808
C         11.22828        16.24293        -0.04653
C         10.00199        16.88196        -0.37052
C         11.30102        19.01974        -0.91387
C         10.00193        18.23294        -0.94148
C         11.21665        20.48301        -0.74227
C         10.04427        21.17358        -0.97529
C         11.19345        23.34058        -0.82437
C         10.00388        22.62604        -0.96624
C         11.23263        24.77345        -1.14064
C          9.90532        25.53487        -1.06310
C         11.10150        27.66676        -0.43424
C          9.90571        26.95669        -0.66045
C         11.05310        29.02696        -0.04477
C          9.83467        29.74040        -0.07768
C         11.02995        31.87790         0.37781
C          9.81574        31.16408         0.11315
C         10.99423        33.31089         0.50776
C          9.75136        34.00661         0.40271
C         10.93890        36.14156         0.73904
C          9.72431        35.41991         0.55920
C         10.90939        37.58470         0.78549
C          9.64504        38.25213         0.75766
C         13.07201         3.87008        -1.48133
C         11.86713         4.56312        -1.11220
C         13.21899         6.56473        -0.51261
C         11.98526         5.95614        -0.68975
C         13.36839         7.78598         0.24731
C         12.25531         8.17078         0.94766
C         13.67006        10.71559         1.34123
C         12.37632        10.16564         1.67967
C         13.69279        12.19043         1.50448
C         12.42518        12.93471         1.25612
C         13.73495        14.91904         0.56394
C         12.45554        14.23289         0.78782
C         13.75265        16.26847         0.12046
C         12.49473        16.95504        -0.17869
C         13.74236        19.08143        -0.43918
C         12.51447        18.31256        -0.47477
C         13.72277        20.44688        -0.36556
C         12.43049        21.16798        -0.28182
C         13.72990        23.38277        -0.48753
C         12.42255        22.68829        -0.35247
C         13.74140        24.82478        -0.61363
C         12.50928        25.53620        -0.95390
C         13.63518        27.63419        -0.03349
C         12.43251        27.03430        -0.62552
C         13.56944        28.99441         0.54117
C         12.25083        29.71758         0.46539
C         13.47575        31.85495         0.79774
C         12.26070        31.18615         0.51763
C         13.40098        33.28599         1.11720
C         12.17119        34.02691         0.81250
C         13.41488        36.18181         0.93720
C         12.17013        35.44677         0.87011
C         13.37184        37.62125         0.81759
C         12.11383        38.29126         0.80918
C         15.54194         3.84330        -1.76728
C         14.34410         4.45420        -1.35289
C         15.77810         6.44608        -0.53027
C         14.44619         5.76582        -0.67720
C         15.84193         7.93177        -0.30513
C         14.61887         8.60404         0.24694
C         16.05636        10.63046         0.72422
C         14.74385         9.97624         0.85804
C         16.16407        12.00040         0.92510
C         15.00196        12.86144         1.25737
C         16.20358        14.93296         0.59739
C         14.97905        14.26997         0.79598
C         16.22117        16.27764         0.15295
C         14.98981        16.93084        -0.06878
C         16.27030        19.09929        -0.38437
C         15.01529        18.31406        -0.67137
C         16.26168        20.50797        -0.40511
C         14.97599        21.23053        -0.04024
C         16.16731        23.42496        -0.68125
C         14.90796        22.68317        -0.44786
C         16.18387        24.86994        -0.35098
C         14.91405        25.55156        -0.35964
C         16.04301        27.64709         0.47128
C         14.83583        26.95910        -0.04111
C         16.04364        29.12730         0.51869
C         14.81646        29.79065         0.59116
C         15.98275        31.95425         0.86147
C         14.74232        31.20178         0.77954
C         15.96515        33.34385         1.00168
C         14.71417        34.07006         1.23684
C         15.87851        36.24557         0.82014
C         14.65647        35.52674         1.00229
C         15.82208        37.67653         0.64807
C         14.57091        38.33703         0.69513
C         17.98428         3.84174        -2.17946
C         16.81185         4.48909        -1.67279
C         18.20007         6.46645        -1.09221
C         16.95190         5.79273        -1.12632
C         18.33850         7.79442        -0.53948
C         17.17735         8.54357        -0.10152
C         18.59567        10.43038         0.56920
C         17.25086         9.83724         0.39333
C         18.72198        11.94429         0.84590
C         17.45352        12.71925         1.01217
C         18.81848        14.94761         0.75604
C         17.47446        14.22607         0.93185
C         18.70105        16.28277         0.04517
C         17.49523        16.95306        -0.09558
C         18.70931        19.09799        -0.45477
C         17.49821        18.38796        -0.38264
C         18.72357        20.52278        -0.47650
C         17.47604        21.21711        -0.49534
C         18.73255        23.46329        -0.61425
C         17.45998        22.67943        -0.73844
C         18.66088        24.88125        -0.21464
C         17.38168        25.53015        -0.10166
C         18.59681        27.72412         0.33177
C         17.35985        26.92262         0.40251
C         18.54177        29.14245         0.42687
C         17.27873        29.84908         0.56443
C         18.47832        32.01117         0.62273
C         17.24879        31.25543         0.70549
C         18.46720        33.43147         0.71307
C         17.23110        34.13039         1.21723
C         18.31719        36.31067         0.58618
C         17.13053        35.58309         0.80620
C         18.25949        37.74217         0.43629
C         17.02162        38.39870         0.47653
C         19.20585         4.46738        -2.13702
C         20.61474         6.41593        -1.54360
C         19.34724         5.78143        -1.59815
C         20.74327         7.68480        -1.02305
C         19.61919         8.40204        -0.51910
C         20.96912        10.44706        -0.06272
C         19.76314         9.75261        -0.01755
C         21.05046        11.84286         0.11154
C         19.93365        12.63245         0.38799
C         21.02274        14.70933        -0.36348
C         19.93245        14.06698         0.18580
C         21.06329        16.12373        -0.52239
C         19.94335        16.90363        -0.33080
C         21.16633        19.09794        -0.09211
C         20.00019        18.36596        -0.69829
C         21.13898        20.46126         0.00842
C         19.97076        21.21870        -0.30446
C         21.12564        23.47910         0.21770
C         20.03422        22.69798        -0.37973
C         21.05680        24.83804         0.29701
C         19.84390        25.58176         0.05294
C         21.01360        27.80203         0.13039
C         19.82202        27.03888         0.18499
C         20.97407        29.18183         0.19963
C         19.75179        29.88605         0.34015
C         20.87968        32.10761         0.19022
C         19.71103        31.33384         0.38447
C         20.84190        33.48795         0.22071
C         19.63868        34.17990         0.50322
C         20.74491        36.41628         0.37818
C         19.59487        35.64767         0.51289
C         20.68460        37.82759         0.27659
C         19.47439        38.47962         0.28248
O         14.49665        12.67256         2.63272
O         12.26908        21.98145         0.94277
O          4.18302        10.73649         2.92320
O         15.00666         8.72069        -1.20835
O         19.65156        23.20157        -1.71841
O         12.39771         8.84490         2.15189
O          4.48941        23.22578        -2.79965
O         15.20880         5.70270         0.60070
O          3.00182         8.38922         3.20590
O         18.88566        10.96625         1.90761
O          5.25136        17.12338        -2.27230
O         12.73105        29.10092         1.74037
O          8.29027        20.80406        -2.68012
O          3.10840        36.05694        -1.76739
O         16.75822        23.04811        -1.99342
O         10.54585        25.19373        -2.34891
O         13.97641        33.62638         2.42607
O          6.09520        28.25068         1.10316
O          2.54202        25.73035         0.96812
O          5.01996        30.31286        -1.87295
O         16.62450        27.04019         1.68183
O          4.09833        15.26202         1.62261
O         10.79915        18.45534        -2.17031
O         12.68752        26.55192        -1.98576
O          1.53816        33.51634        -1.92249
O          9.22408        10.34124         2.92380
O         10.79105         8.05884        -1.01111
O          1.55416        23.13766        -2.65182
O         17.43993        13.56059         2.23497
O          3.75561         6.63367        -0.09154
O          8.93710         5.06867        -2.43670
H          9.56991         5.74971        -2.75162
O         15.00068        21.28483         1.43255
H         14.10622        21.59765         1.71334
O         20.22524        18.40055        -2.15840
H         20.21668        19.34298        -2.43273
O         15.05827        18.08045        -2.12527
H         15.06485        18.95303        -2.57335
O         11.06866        12.45393         3.13978
H         10.37362        11.83227         3.47032
O          0.19853         8.50996         3.11906
H          0.81167         8.44997         3.88371
O         19.27821        15.31293         2.09104
H         18.93269        14.61923         2.70304
O         17.38000        34.18139         2.68895
H         17.27002        33.26846         3.03103
O          5.64990        35.82983         2.06769
H          6.37968        36.24011         2.57963
O          1.52675        18.94738        -3.62094
H          2.33333        19.46708        -3.82609
H          1.17840         2.65030         1.86206
H         -0.91286         3.83082         2.51734
H         -0.99961         6.32637         2.54483
H         -0.60273         7.83116         0.33980
H         -0.37218        10.05729        -0.62084
H         -0.69801        12.02354        -0.62899
H         -0.66721        14.32168        -1.43779
H         -0.81696        16.29489        -1.39673
H         -0.82356        18.56666        -2.22334
H         -0.77413        20.33170        -1.13790
H         -0.87053        22.67288        -0.43653
H         -0.96672        24.80693        -0.60775
H         -0.98592        27.18834        -0.16108
H         -0.97696        29.09919         0.17779
H         -1.00794        31.53784         0.05317
H         -1.03287        33.48274         0.19685
H         -0.99512        35.90583         0.27667
H          0.15627        38.06827         0.04169
H          3.51787         2.71027         1.15247
H          2.26647        39.31823         0.26453
H          5.88614         2.74091         0.35302
H          4.74106        39.34390         0.51989
H          8.11840         2.85476        -0.69904
H          7.18674        39.33274         0.59533
H         10.54332         2.92230        -1.51061
H          9.62635        39.35135         0.80442
H         12.98752         2.85665        -1.90229
H         12.09869        39.39116         0.78361
H         15.50074         2.84505        -2.22894
H         14.54010        39.43289         0.60247
H         17.89267         2.83071        -2.60169
H         16.98360        39.49377         0.37820
H         20.10156         3.95775        -2.52089
H         21.49794         5.88403        -1.92539
H         21.73903         8.14593        -0.99880
H         21.88602         9.93238        -0.37939
H         22.01827        12.31766        -0.09793
H         21.89775        14.13631        -0.70012
H         21.98945        16.58181        -0.89653
H         22.08982        18.54693         0.13661
H         22.04613        20.99125         0.33298
H         22.02394        22.96348         0.58499
H         21.92594        25.38239         0.69293
H         21.98294        27.30073         0.00691
H         21.92229        29.73205         0.14438
H         21.84000        31.61637        -0.01281
H         21.77050        34.04355         0.03565
H         21.73380        35.94003         0.34137
H         21.61945        38.39581         0.17293
H         19.42518        39.57335         0.18240
