         349
 CSIRO Nanostructure Databank - Neutral Graphene Oxide Data Set
C          1.99880         3.15957         3.86614
C          1.85493         4.42067         3.25326
C          3.06753         2.32478         3.57870
C          2.75295         4.86177         2.26878
C          1.47317         6.92656         1.74737
C          1.39928         8.21091         1.32208
C          2.69332         6.15772         1.68369
C          2.65273         8.97105         0.99144
C          1.30402        11.00046         0.34691
C          1.20273        12.29527        -0.14740
C          2.47004        10.23932         0.17461
C          2.30708        12.92300        -0.75565
C          1.09102        15.08355        -1.05742
C          1.09711        16.49927        -1.00475
C          2.25270        14.32667        -1.16037
C          2.28532        17.22028        -0.98962
C          2.36549        18.59013        -0.57184
C          4.04787         2.70024         2.61423
C          3.81061         3.93204         1.83745
C          5.20393         1.96259         2.40055
C          4.97268         4.49052         0.99281
C          3.81894         6.72396         0.97511
C          3.74115         8.04593         0.51714
C          5.00119         5.93136         0.69133
C          4.83707         8.57146        -0.29868
C          3.55434        10.81174        -0.52993
C          3.49481        12.16550        -0.92577
C          4.76595         9.99346        -0.82512
C          4.69732        12.81097        -1.51245
C          3.49497        14.99858        -1.56283
C          3.52225        16.55270        -1.40194
C          4.78540        14.29750        -1.47447
C          4.81925        17.15857        -1.09000
C          3.57468        19.21115        -0.40699
C          4.82614        18.52280        -0.59789
C          6.31184         2.47817         1.64842
C          6.24539         3.77219         1.05328
C          7.53230         1.77431         1.61787
C          7.39941         4.37532         0.49639
C          6.16701         6.48996         0.15035
C          6.21711         7.99654        -0.01283
C          7.34460         5.71490        -0.06093
C          7.26760         8.51680        -0.94607
C          6.03938        10.63554        -1.16794
C          5.97545        12.03197        -1.62048
C          7.22254         9.86903        -1.31605
C          7.24442        12.81223        -1.76752
C          5.98477        14.98765        -1.41162
C          5.99199        16.41706        -1.19289
C          7.26378        14.19593        -1.10524
C          7.28352        17.14003        -1.05523
C          6.02461        19.12904        -0.23175
C          7.27311        18.46779        -0.38252
C          8.67492         2.32729         1.00073
C          8.59959         3.63763         0.44201
C          9.93121         1.65599         1.06599
C          9.72589         4.16575        -0.33967
C          8.50874         6.27991        -0.67715
C          8.41666         7.62599        -1.37716
C          9.72905         5.59220        -0.72330
C          9.72782         8.36768        -1.16002
C          8.46874        10.49137        -1.96823
C          8.50442        12.03861        -1.90914
C          9.71855         9.83808        -1.36717
C          9.79668        12.77194        -1.65921
C          8.59950        14.92386        -1.28878
C          8.58880        16.41205        -1.18111
C          9.76818        14.22479        -1.28932
C          9.82279        17.09899        -0.66890
C          8.43859        19.03212         0.12408
C          9.70263        18.37604         0.09437
C         11.10191         2.20092         0.51818
C         10.98927         3.35029        -0.42341
C         12.35596         1.72006         0.91774
C         12.25064         3.95012        -1.04675
C         10.99767         6.23538        -1.07950
C         10.99807         7.61108        -1.26380
C         12.26031         5.48465        -1.16411
C         12.22891         8.32841        -1.78727
C         11.03346        10.50822        -1.46862
C         11.03519        11.98030        -1.42641
C         12.21944         9.82217        -1.47253
C         12.21411        12.61738        -0.83275
C         11.15436        14.86682        -1.07783
C         11.07901        16.30910        -0.54825
C         12.00391        13.94695        -0.14768
C         11.98155        16.75378         0.61004
C         10.84014        18.96062         0.63742
C         12.09018        18.26048         0.72094
C         13.56956         2.34483         0.49981
C         13.50018         3.44900        -0.36619
C         14.82790         1.90919         1.03441
C         14.72137         3.98333        -0.94518
C         13.47272         6.11548        -1.46315
C         13.51424         7.65139        -1.29982
C         14.69760         5.32845        -1.52719
C         14.73326         8.46477        -1.74155
C         13.46525        10.55576        -1.33030
C         13.41330        11.96026        -0.93677
C         14.69428         9.89695        -1.43667
C         14.63571        12.67908        -0.62694
C         13.33047        14.59372         0.25804
C         13.33413        16.04836         0.59333
C         14.61058        13.94317        -0.10944
C         14.59299        16.86846         0.32458
C         13.26599        18.85746         1.12299
C         14.55201        18.18790         1.09163
C         16.05674         2.45264         0.62920
C         16.06916         3.40008        -0.50559
C         17.28531         2.13718         1.23611
C         17.30238         4.16313        -0.79109
C         15.93249         5.75580        -2.04010
C         15.88876         7.99985        -2.28926
C         17.21754         5.30292        -1.63100
C         17.22482         8.68966        -2.25154
C         15.93691        10.60519        -1.30345
C         15.95201        12.09539        -1.05895
C         17.15801         9.94796        -1.42770
C         17.00991        12.44012        -0.00806
C         15.84721        14.64366         0.26585
C         15.81056        16.02267         0.60415
C         17.04311        13.91980         0.29579
C         16.94744        16.64286         1.25487
C         15.69964        18.77013         1.55128
C         17.03188        18.15364         1.19220
C         18.52786         2.61436         0.71266
C         18.51884         3.61534        -0.33681
C         19.73832         2.14113         1.22969
C         19.76233         4.07145        -0.95366
C         18.43465         6.15540        -1.86622
C         18.40964         7.69393        -1.91092
C         19.77238         5.46154        -1.62208
C         19.68940         8.42325        -1.47992
C         18.35942        10.47928        -0.86305
C         18.39541        11.93951        -0.44739
C         19.48935         9.69914        -0.68607
C         19.45765        12.33709         0.58178
C         18.35159        14.65659         0.39605
C         18.27449        15.88289         1.27559
C         19.58918        13.82545         0.65262
C         19.51145        16.62115         1.42164
C         18.28082        18.71145         1.81781
C         19.49832        18.00640         1.77305
C         21.02704         2.40771         0.60118
C         21.07001         3.47098        -0.54281
C         22.29147         2.14059         1.24853
C         22.32235         4.20468        -0.76982
C         21.04381         6.19254        -1.60773
C         21.01694         7.67114        -1.56285
C         22.29137         5.54000        -1.32428
C         22.33700         8.26823        -1.20036
C         20.55059        10.25508         0.13280
C         20.74984        11.59003         0.41846
C         22.47573         9.21424        -0.25546
C         22.05497        12.35450         0.23066
C         20.78658        14.42865         0.96169
C         20.74989        15.83140         1.45158
C         22.06692        13.74247         0.87014
C         22.04817        16.54916         1.68360
C         20.76732        18.67579         1.94235
C         21.99544        18.02892         1.78248
C         23.50126         2.56035         0.67300
C         23.53008         3.64114        -0.31804
C         24.70761         2.07449         1.22483
C         24.79654         4.21269        -0.70936
C         23.55193         6.20298        -1.50480
C         23.54500         7.68359        -1.87601
C         24.79089         5.53435        -1.33543
C         24.78101         8.40990        -1.38949
C         23.57774        10.17571        -0.11260
C         23.40240        11.61683         0.30108
C         24.68118         9.88276        -1.13127
C         24.60917        12.48935         0.13443
C         23.27534        14.45505         0.94669
C         23.29425        15.86464         1.28466
C         24.55355        13.82164         0.59049
C         24.46790        16.61401         1.27762
C         23.22748        18.72017         1.75721
C         24.45350        18.04290         1.56688
C         25.96549         2.56414         0.79581
C         25.98077         3.56300        -0.26471
C         27.15900         2.13820         1.37458
C         27.27234         3.85919        -0.78367
C         26.00933         6.31050        -1.52240
C         25.98730         7.75198        -1.35909
C         27.28505         5.74344        -1.68626
C         27.22094         8.49293        -1.20317
C         25.94935        10.56103        -0.73419
C         25.87291        11.88587        -0.22693
C         27.18700         9.90066        -0.92591
C         27.08626        12.60913        -0.06453
C         25.76792        14.56955         0.71917
C         25.73423        15.95881         1.06279
C         27.04414        13.95141         0.43847
C         26.92474        16.67930         1.26570
C         25.67284        18.74653         1.64038
C         26.92032        18.08598         1.53927
C         28.45481         2.86849         1.17154
C         28.46542         3.69143        -0.09672
C         29.70218         2.01069         1.21431
C         29.67915         4.38141        -0.44680
C         28.50908         6.39526        -1.42299
C         28.47285         7.83521        -1.28346
C         29.71225         5.68464        -1.06371
C         29.67752         8.56788        -1.23487
C         28.40006        10.62453        -0.78675
C         28.35748        12.01050        -0.39827
C         29.65771         9.97354        -1.02211
C         29.54177        12.75168        -0.36355
C         28.24638        14.62758         0.68399
C         28.19286        15.94411         1.32438
C         29.51875        14.20241         0.00762
C         29.46958        16.68882         1.62929
C         28.14963        18.79890         1.62963
C         29.40776        18.17061         1.58517
C         30.84985         2.50485         0.70900
C         30.89509         3.81504         0.05560
C         32.09725         4.50227        -0.08791
C         30.94558         6.41412        -1.06468
C         30.94555         7.83706        -1.61394
C         32.11273         5.80613        -0.61627
C         32.16705         8.65776        -1.30654
C         30.86817        10.71939        -1.01569
C         30.78765        12.23194        -1.04815
C         32.10178        10.01186        -1.10881
C         32.04505        12.94641        -0.60925
C         30.80822        14.64742         0.69808
C         30.79443        15.99554         1.40887
C         32.04820        14.07660         0.11290
C         31.98479        16.85171         1.45196
C         30.61417        18.88470         1.51658
C         31.86835        18.22001         1.48058
O          7.84297        12.64592        -3.08227
O         20.51715         8.50872        -2.68790
O         15.42670         2.94404        -1.72415
O         13.41965        15.06285         1.66220
O         15.92357         6.79000        -2.97148
O          9.58184         9.28771         0.00153
O          9.97875         3.19115        -1.46458
O         19.75441         4.22860        -2.40521
O         30.85059        14.71671         2.13839
O          3.40633        15.89938        -2.69925
O         21.09705         2.06798        -0.84625
O         18.58667         6.88403        -3.11374
O          8.02534        17.10400        -2.34386
O         21.44120         9.33020         0.66557
O          4.50285         8.80632        -1.69063
O         17.40551        15.92404         2.44408
O         28.74111        16.07108         2.72636
O         10.92936        17.23539        -1.65481
O         21.36737        15.89243         2.81115
O         27.34007         4.39900        -2.08205
O          5.09001        12.20894        -2.79783
O          7.18563        13.97782         0.28850
O         10.72600        12.54446        -2.78455
O         23.78625        10.58270         1.27550
O          3.86720         3.74161         0.38858
O         13.49664         7.82250         0.15106
H         14.36498         7.54715         0.51067
O         14.58580        17.20203        -1.08854
H         15.43308        17.67354        -1.26669
O         11.88143        14.91824        -2.31190
H         11.54391        15.69569        -2.81306
O         29.56144        14.97347        -1.28556
H         28.71550        14.79403        -1.75200
O         19.00009        11.94141         1.92831
H         19.67429        12.24912         2.57181
O         17.53878         9.17101        -3.58184
H         17.81395         8.38711        -4.11100
O         30.63019        12.59513        -2.47427
H         30.48398        13.57109        -2.48393
O         18.81395        12.63280        -1.66047
H         18.09832        12.49964        -2.33508
O         18.57186        15.24683        -0.93818
H         18.66876        14.48067        -1.55954
O         30.91423         7.69769        -3.08161
H         30.89094         8.60236        -3.46043
O         12.34385         3.43302        -2.40203
H         11.41966         3.27866        -2.70980
O         21.99213        12.65488        -1.21626
H         21.07226        12.92908        -1.43786
O         11.26864        16.37657         1.81241
H         11.71484        15.57390         2.17774
O         16.54907        11.71701         1.15602
H         17.20680        11.85243         1.87935
O         23.46275         7.86418        -3.31715
H         24.13064         7.28370        -3.73817
O         11.21220        13.68757         1.02963
H         11.77462        13.22460         1.68557
O          8.46834        10.11341        -3.36551
H          8.03928        10.85923        -3.85450
O          6.56305         8.52235         1.31946
H          7.53800         8.63795         1.36130
O         17.17803        18.39981        -0.27173
H         17.32254        19.36258        -0.39506
O          8.27175         7.34945        -2.79221
H          8.16792         8.21595        -3.25870
O         28.56261         3.79548         2.31432
H         29.41949         4.26457         2.21838
O          3.14904         9.49659         2.28974
H          3.36350         8.72496         2.85681
O         16.29581        12.72170        -2.33144
H         15.58765        12.50876        -2.97636
O         12.21227         8.20390        -3.23046
H         11.40802         8.64242        -3.57946
O         24.22120        10.51685        -2.36980
H         23.79311         9.82668        -2.93108
H          1.26740         2.85649         4.62823
H          1.04019         5.07863         3.58578
H          3.18791         1.37422         4.11763
H          0.55758         6.41800         2.08245
H          0.43343         8.73249         1.36042
H          0.44996        10.58791         0.89969
H          0.26420        12.84474         0.00211
H          0.13157        14.58243        -0.86690
H          0.15064        17.01819        -0.79341
H          1.43198        19.13099        -0.35767
H          5.33924         1.00963         2.93374
H          3.61071        20.25677        -0.06800
H          7.59911         0.78357         2.09002
H          6.00767        20.13334         0.21800
H         10.00607         0.74146         1.67321
H          8.37346        20.01136         0.62352
H         12.40348         0.87209         1.61662
H         10.78177        19.99121         1.02191
H         14.81886         1.13483         1.81533
H         13.25761        19.92763         1.38635
H         17.30729         1.41462         2.06488
H         15.66583        19.75271         2.04786
H         19.72412         1.50647         2.12811
H         18.29505        19.77996         2.08439
H         22.30909         1.55364         2.17816
H         20.76274        19.76666         2.08987
H         24.66502         1.32250         2.02590
H         23.23783        19.81014         1.90771
H         27.12220         1.37470         2.16670
H         25.65340        19.82912         1.83464
H         29.68241         1.04858         1.74706
H         28.11120        19.89671         1.69827
H         31.79410         1.94793         0.80906
H         33.03407         4.04564         0.26178
H         33.07007         6.34281        -0.65624
H         33.15601         8.19222        -1.42536
H         33.04458        10.57110        -1.02031
H         32.99950        12.57674        -1.01325
H         33.00591        14.55803         0.36287
H         32.97818        16.38262         1.44881
H         30.58933        19.98353         1.50493
H         32.78094        18.83301         1.48024
