         429
 CSIRO Nanostructure Databank - Neutral Graphene Oxide Data Set
C          1.91450         2.35532        -3.18081
C          1.91654         3.75593        -3.25870
C          3.07949         1.61288        -2.97843
C          3.11782         4.49238        -3.17735
C          2.05234         6.72665        -3.56730
C          2.00652         8.06134        -3.33636
C          3.17117         5.91146        -3.14128
C          2.98511         8.68866        -2.37506
C          1.80243        10.90693        -2.46075
C          1.76981        12.28958        -2.32291
C          3.01383        10.20244        -2.35795
C          2.92398        13.00560        -1.96036
C          1.76331        15.22626        -2.25413
C          1.74103        16.58609        -2.21899
C          2.86984        14.45139        -1.73049
C          2.68274        17.32477        -1.38050
C          2.91640        18.76471        -1.58039
C          4.34039         2.25310        -2.88777
C          4.37146         3.71281        -3.10991
C          5.53216         1.57361        -2.61685
C          5.64459         4.44876        -2.72564
C          4.37482         6.59697        -2.71625
C          4.35023         8.04547        -2.48336
C          5.53351         5.88380        -2.45329
C          5.48164         8.74608        -2.16879
C          4.18259        10.90649        -2.02824
C          4.13704        12.29545        -1.75142
C          5.54147        10.25537        -2.10009
C          5.29192        12.94773        -1.14610
C          3.95221        15.09182        -1.15830
C          3.86580        16.50126        -0.79861
C          5.32624        14.45896        -1.10368
C          5.07613        17.21074        -0.36468
C          4.01152        19.36932        -1.07117
C          5.07851        18.64376        -0.38520
C          6.75314         2.24191        -2.27861
C          6.77967         3.68060        -2.17262
C          7.89941         1.52543        -1.89644
C          7.85314         4.33145        -1.57840
C          6.78310         6.56463        -2.08409
C          6.77924         8.05905        -2.02250
C          7.72588         5.78614        -1.19670
C          7.88480         8.76303        -1.27721
C          6.50003        10.79048        -1.04355
C          6.35848        12.19745        -0.67896
C          7.59391        10.07416        -0.64544
C          7.41970        12.80797         0.11440
C          6.18959        15.05986        -0.01100
C          6.13606        16.44016         0.21084
C          7.19801        14.19583         0.61201
C          7.13159        17.17077         1.06038
C          6.12139        19.35243         0.16887
C          7.26463        18.71421         0.89465
C          9.04426         2.17885        -1.37327
C          9.01326         3.60622        -1.16603
C         10.20155         1.45799        -1.00459
C         10.12049         4.27458        -0.58427
C          9.03046         6.47685        -0.91607
C          9.03694         7.94267        -0.77740
C         10.10233         5.73113        -0.43532
C         10.02028         8.56237         0.12577
C          8.50750        10.56799         0.46231
C          8.49248        12.07977         0.56773
C          9.89633         9.92537         0.48894
C          9.56620        12.70151         1.38427
C          8.33531        14.87003         1.38283
C          8.31750        16.35119         1.59713
C          9.63314        14.17668         1.44212
C          9.63955        16.97015         1.80163
C          8.55366        19.08266         0.15147
C          9.73848        18.94415         0.82650
C         11.31255         2.10614        -0.43307
C         11.27253         3.52964        -0.20959
C         12.48988         1.39159        -0.08496
C         12.38436         4.16015         0.42071
C         11.18421         6.39315         0.22879
C         11.15431         7.79180         0.49041
C         12.25270         5.58059         0.81055
C         12.29396         8.47079         1.04695
C         10.99567        10.57186         1.07687
C         10.86699        11.95645         1.59098
C         12.24176         9.88356         1.24365
C         12.09759        12.74577         1.84098
C         10.83056        14.85053         1.59978
C         10.84650        16.31826         1.60651
C         12.06933        14.12529         1.84847
C         12.10064        17.05193         1.46470
C         11.07586        19.14907         0.40950
C         12.16617        18.40741         0.94266
C         13.59890         2.02673         0.48308
C         13.51916         3.43331         0.80173
C         14.84017         1.31325         0.60325
C         14.64929         4.10005         1.47155
C         13.47066         6.30806         1.36160
C         13.49065         7.77403         1.32613
C         14.74561         5.58132         1.46745
C         14.69118         8.45919         1.60180
C         13.41829        10.56114         1.66551
C         13.34076        11.97226         2.08867
C         14.66008         9.88195         1.74396
C         14.64953        12.71372         2.30873
C         13.28509        14.93871         2.13833
C         13.31528        16.36069         1.70566
C         14.61893        14.21396         2.31849
C         14.57116        17.01855         1.63987
C         13.43866        19.02055         0.82238
C         14.61963        18.40002         1.22765
C         16.03128         1.93797         0.93127
C         16.01702         3.31528         1.47113
C         17.29949         1.29357         0.80591
C         17.21056         4.10486         1.45794
C         15.92307         6.27014         1.63728
C         15.93876         7.73133         1.67918
C         17.18446         5.50489         2.02476
C         17.14101         8.44177         1.70904
C         15.90577        10.60151         1.87863
C         15.91270        12.01155         1.99059
C         17.15021         9.88311         1.78464
C         17.11667        12.74684         1.85632
C         15.86996        14.93644         2.02010
C         15.80986        16.32615         1.86881
C         17.10607        14.19484         1.88198
C         17.05930        17.10751         1.85707
C         15.85174        19.12945         1.16438
C         17.06908        18.53207         1.44647
C         18.49755         1.98687         0.94541
C         18.49222         3.49935         0.96333
C         19.74995         1.32536         0.88326
C         19.66725         4.08437         1.73016
C         18.45460         6.25408         1.71336
C         18.40218         7.70705         1.31251
C         19.66451         5.58410         1.68989
C         19.68395         8.42836         1.60983
C         18.36295        10.61097         1.76258
C         18.35720        12.03527         1.71794
C         19.68338         9.89504         1.97530
C         19.58418        12.77752         1.58749
C         18.31332        14.88299         1.68020
C         18.35354        16.35400         1.75855
C         19.55614        14.19254         1.54388
C         19.49802        17.06806         1.07460
C         18.31032        19.22798         1.40848
C         19.54680        18.55266         1.38343
C         20.97557         1.90793         1.24936
C         20.93992         3.29657         1.83630
C         22.17122         1.18506         0.98257
C         22.18609         4.11958         1.91227
C         20.88815         6.29727         1.51098
C         20.89115         7.73020         1.52995
C         22.15353         5.54706         1.49268
C         22.16772         8.45577         1.59831
C         20.85018        10.59916         1.27852
C         20.86254        12.08682         1.54249
C         22.16064         9.90682         1.58710
C         22.03952        12.76922         1.65572
C         20.77711        14.95548         1.46445
C         20.79604        16.34742         1.30228
C         22.06710        14.26774         1.80253
C         21.99863        17.09447         1.22712
C         20.77954        19.21574         1.43836
C         22.02753        18.52091         1.31302
C         23.42216         1.51170         1.55143
C         23.36423         3.56529         2.28507
C         24.71820         1.30257         1.06914
C         24.70942         4.18687         2.24663
C         23.42692         6.32854         1.67081
C         23.36196         7.78919         1.74206
C         24.70063         5.67561         2.12403
C         24.66662         8.49666         2.02372
C         23.34821        10.60470         1.64533
C         23.35483        12.08017         1.93073
C         24.62375         9.93692         1.61906
C         24.56290        12.77926         1.34701
C         23.24489        14.87319         1.05971
C         23.23966        16.38395         0.90968
C         24.53356        14.18359         1.12959
C         24.51397        17.09572         0.98946
C         23.27661        19.19886         1.29253
C         24.52161        18.51824         1.19583
C         25.87775         2.08519         1.38945
C         25.91706         3.42509         1.81766
C         27.16361         1.38781         0.97666
C         27.14634         4.20013         1.67318
C         25.92944         6.38479         1.70581
C         25.87594         7.73599         1.52851
C         27.15711         5.61880         1.60410
C         27.04457         8.44700         0.90989
C         25.79325        10.63573         1.32875
C         25.73085        12.05902         1.12052
C         27.06473         9.94165         1.15340
C         26.93675        12.78159         0.68327
C         25.72742        14.92388         0.97846
C         25.70967        16.36870         1.00123
C         26.96817        14.23032         0.89816
C         26.94368        17.04334         1.26816
C         25.78035        19.18917         1.24395
C         27.01421        18.49866         1.25662
C         28.44112         2.09477         1.35560
C         28.40476         3.52522         1.54537
C         29.63263         1.40638         1.30816
C         29.61403         4.25220         1.59778
C         28.37972         6.35027         1.45974
C         28.36081         7.76300         1.21366
C         29.62998         5.67127         1.51921
C         29.54294         8.46238         1.00737
C         28.23757        10.61456         0.95574
C         28.25733        12.07116         0.69636
C         29.47344         9.88327         0.50867
C         29.50943        12.84408         0.84558
C         28.19019        14.88607         1.13128
C         28.04057        16.23692         1.56149
C         29.48554        14.22402         1.00279
C         29.87646        17.30597         1.30278
C         28.24671        19.19599         1.02361
C         29.54085        18.64041         0.82568
C         30.89865         2.06534         1.47094
C         30.87686         3.51502         1.72471
C         32.10997         1.41152         1.33192
C         32.18906         4.29981         1.51551
C         30.85850         6.40148         1.30238
C         30.80851         7.80287         1.03358
C         32.10159         5.72876         1.18726
C         32.00394         8.52319         0.71091
C         30.74883        10.67804         0.68977
C         30.74566        12.08252         0.74344
C         31.97501         9.96122         0.56654
C         31.95728        12.80798         0.47762
C         30.83836        14.97649         1.13698
C         30.80288        16.46548         0.76552
C         31.93630        14.22997         0.38393
C         32.00872        17.16433         0.19627
C         30.54445        19.25838         0.04297
C         31.72490        18.56595        -0.32839
C         33.35052         2.11918         1.14496
C         33.36568         3.54304         1.09494
C         34.53330         1.41538         0.83550
C         34.50290         4.24851         0.62986
C         33.26228         6.40563         0.73416
C         33.22466         7.82610         0.53863
C         34.47154         5.67807         0.47768
C         34.41963         8.52600         0.14408
C         33.16706        10.66286         0.25583
C         33.12345        12.08277         0.10606
C         34.38749         9.95318        -0.01099
C         34.23322        12.77598        -0.45497
C         32.94433        14.86401        -0.36438
C         32.79592        16.29490        -0.75051
C         34.08168        14.13397        -0.80728
C         33.84148        16.99303        -1.56120
C         32.74387        19.18491        -1.05503
C         33.91037        18.47724        -1.48801
C         35.70660         2.09388         0.43932
C         35.68550         3.52173         0.31408
C         36.88753         1.37876         0.08659
C         36.84592         4.21901        -0.13505
C         35.64064         6.36768         0.03328
C         35.61097         7.81019        -0.11996
C         36.81737         5.64148        -0.25151
C         36.76543         8.51498        -0.60476
C         35.53852        10.65865        -0.44148
C         35.46996        12.07548        -0.69813
C         36.73649         9.93132        -0.75583
C         36.60577        12.78826        -1.13191
C         35.16822        14.75991        -1.59248
C         35.06508        16.23535        -1.97475
C         36.51089        14.14133        -1.53769
C         36.31364        16.98084        -2.16542
C         35.06256        19.12250        -1.89162
C         36.27532        18.41196        -2.21796
C         38.02000         2.04857        -0.38181
C         38.00351         3.46456        -0.47963
C         39.16607         1.31356        -0.92413
C         39.12108         4.12124        -1.16711
C         38.11092         6.38437        -0.47347
C         37.95652         7.80926        -0.94238
C         39.12739         5.61509        -1.28452
C         39.03416         8.47371        -1.52974
C         37.89490        10.61852        -1.22947
C         37.94949        12.11914        -0.97267
C         38.99724         9.89206        -1.68275
C         39.08814        12.84147        -1.68598
C         37.63383        14.87502        -2.00394
C         37.52971        16.28168        -2.32329
C         38.90903        14.23071        -2.14695
C         38.70291        17.00715        -2.71025
C         37.43446        19.11250        -2.56476
C         38.64194        18.42833        -2.85850
C         40.28133         1.92998        -1.36832
C         40.45886         3.41158        -1.13910
C         41.48558         4.11901        -1.97446
C         40.38125         6.28726        -1.62925
C         40.27386         7.73843        -2.03741
C         41.45492         5.49436        -2.09958
C         41.51032         8.56243        -1.76947
C         40.17668        10.54435        -2.39581
C         40.24266        12.05499        -2.27593
C         41.46634         9.88805        -1.93889
C         41.10643        12.75331        -3.23560
C         39.97843        14.88281        -2.78122
C         39.91941        16.31929        -2.99076
C         41.05597        14.10701        -3.34633
C         41.03978        17.05818        -3.41157
C         39.79950        19.13515        -3.27633
C         40.97475        18.45153        -3.55015
O         31.69602         3.94998         2.85304
O         23.00823        15.46285        -0.24565
O         20.00912         3.44317         2.97973
O          9.65233        18.32120         2.11402
O          9.84431        12.02974         2.66743
O          7.31253         7.34722        -3.19685
O          2.69668        16.88169         0.00575
O         40.34416        12.61680        -0.93245
O          7.25319        14.20515         2.08514
O         24.82022         5.07232         3.44277
O          7.20545        16.77473         2.45293
O         15.15877         3.47178         2.67434
O         27.55329        12.34564        -0.59202
O         23.34242         2.25023         2.74973
O         17.92647        16.88285         3.04009
O         13.87767        14.74097         3.46116
O          9.11338         8.74968        -2.07978
O         32.58231        16.52642        -2.16757
O         23.02632         5.82863         0.32793
O         38.65926         4.76955        -2.40685
O         29.06369        16.79210         2.32909
O         13.92200        12.14436         3.43260
O          5.35073         4.11298        -4.12754
O         12.43141         5.78040         2.26233
O         34.80709        15.19171        -2.95713
O         40.00330        10.32039        -3.81746
H         40.03465         9.34067        -3.97147
O         18.30479         7.67153        -0.17848
H         19.17077         7.35648        -0.51881
O         19.20380        16.95585        -0.35610
H         20.00435        17.23442        -0.84944
O         26.87519         8.31918        -0.54521
H         27.67117         8.74377        -0.95738
O         18.70528         3.92738        -0.42890
H         18.03210         3.48393        -0.98700
O         32.92324        17.34355         1.33359
H         32.42786        17.77649         2.06061
O         40.89764         3.55155         0.26048
H         41.77386         3.12048         0.34443
O         23.55087        12.15171         3.38898
H         23.35254        13.08678         3.64984
O         20.62313        10.42508        -0.14752
H         21.34686        10.87306        -0.63326
O         38.22439        12.22235         0.46103
H         39.20673        12.22048         0.55203
O         40.12860         7.64479        -3.50621
H         39.42293         6.98627        -3.68986
O         27.16357         1.19252        -0.45621
H         27.18717         2.07445        -0.88180
O         38.73966         6.48172         0.85278
H         38.13872         6.99587         1.43280
O          7.02137         5.78588         0.10422
H          7.56633         5.27698         0.74245
O          7.29686        19.31907         2.19836
H          7.46008        18.59773         2.85236
O         24.80680         8.50891         3.49201
H         24.15290         9.14976         3.84703
O         17.11196         5.37636         3.48705
H         16.38931         4.73149         3.67939
O          2.50123         8.33099        -1.03085
H          2.44142         7.35258        -0.99231
O         19.96199         9.97353         3.40558
H         19.23796         9.52038         3.88689
O          5.98017        14.86198        -2.37212
H          5.58077        14.32511        -3.09053
O         29.30022         9.76014        -0.96011
H         29.05471        10.65142        -1.29750
O         22.35021        14.57839         3.22535
H         21.52655        14.40799         3.73194
O          6.09701        10.67409        -3.39406
H          6.87448        10.10418        -3.58306
O          7.89477        10.11137         1.71652
H          8.36231        10.58717         2.44461
O         31.19224        14.88857         2.54821
H         30.51748        15.41107         3.03786
H          0.95225         1.82710        -3.23916
H          0.95720         4.28487        -3.34892
H          3.02014         0.52074        -2.86686
H          1.25996         6.25016        -4.16385
H          1.16801         8.65355        -3.72983
H          0.86664        10.36793        -2.66092
H          0.80971        12.80958        -2.43715
H          1.00268        14.70606        -2.85225
H          1.00565        17.14828        -2.81317
H          2.18009        19.33872        -2.16250
H          5.51101         0.47507        -2.54919
H          4.15030        20.45304        -1.19984
H          7.90469         0.42841        -1.98017
H          6.13280        20.45006         0.10580
H         10.23438         0.37013        -1.16455
H          8.51365        19.56275        -0.83527
H         12.54282         0.31529        -0.30609
H         11.30024        19.95631        -0.30327
H         14.86526         0.26837         0.25959
H         13.48563        20.05213         0.44352
H         17.32027         0.20817         0.62495
H         15.81756        20.18216         0.84619
H         19.75012         0.26142         0.59752
H         18.29659        20.32860         1.37199
H         22.11719         0.36379         0.25054
H         20.79391        20.30783         1.57738
H         24.87732         0.51725         0.31260
H         23.27985        20.29439         1.39531
H         27.16425         0.36029         1.42430
H         25.78652        20.28993         1.26357
H         29.62682         0.32692         1.09463
H         28.13888        20.26096         0.75669
H         32.11863         0.31843         1.20430
H         30.36383        20.25823        -0.38060
H         34.53495         0.31609         0.87786
H         32.68358        20.26633        -1.25452
H         36.87902         0.27931         0.12747
H         35.09559        20.22245        -1.88784
H         39.06787         0.22020        -1.00867
H         37.40555        20.20973        -2.63683
H         41.11162         1.34602        -1.79497
H         42.34057         3.55060        -2.37027
H         42.29423         6.00111        -2.60089
H         42.43250         8.05490        -1.44925
H         42.35365        10.51478        -1.76383
H         41.80847        12.16268        -3.84036
H         41.76440        14.61225        -4.01775
H         41.99195        16.55046        -3.61618
H         39.75295        20.22832        -3.38258
H         41.86846        19.00400        -3.87233
