         621
 CSIRO Nanostructure Databank - Neutral Graphene Oxide Data Set
C          6.65738        31.38563        -0.80526
C          6.51643        32.73316        -0.88518
C          9.68651        27.53863         0.80303
C          9.01310        28.85847         0.80924
C          8.03710        29.35040         0.00243
C          8.58181        31.74234         0.81598
C          7.61179        30.76908         0.13736
C          8.58228        33.15855         0.43549
C          7.45267        33.66962        -0.28036
C          8.44884        35.90117        -0.18856
C          7.35738        35.04453        -0.49558
C          8.38409        37.29907        -0.41362
C         10.91384        23.29974         1.32215
C         10.88920        24.70448         1.53936
C          9.70997        25.31616         1.97097
C         10.86190        27.59460         1.79744
C          9.60490        26.75113         2.15063
C         10.93238        29.02900         2.28653
C          9.76563        29.76211         1.71840
C         10.91511        31.93709         1.67486
C          9.81540        31.19439         1.39484
C         10.91894        33.44038         1.45793
C          9.69272        33.96174         0.71474
C         10.86992        36.10370         0.25725
C          9.66896        35.32581         0.31502
C         10.81806        37.40073        -0.21965
C          9.55803        38.08008        -0.39732
C         10.76937        40.25760        -0.51190
C          9.56049        39.49656        -0.50571
C         10.78415        41.66637        -0.46464
C         13.35045        18.97982         0.62946
C         13.30680        20.44014         0.61471
C         12.08429        21.19243         0.86925
C         13.38084        23.26801         1.24939
C         12.11187        22.57114         1.09397
C         13.35802        24.69216         1.63207
C         12.11908        25.47463         1.50170
C         13.39710        27.59747         1.64486
C         12.15512        26.87107         1.63610
C         13.44340        29.08199         1.87765
C         12.21738        29.79395         2.39849
C         13.42963        31.82427         0.48736
C         12.03790        31.31621         2.44588
C         13.34821        33.31547         0.57238
C         12.19061        34.01545         0.82639
C         13.37377        36.11524         0.02432
C         12.19016        35.53656         0.75901
C         13.32903        37.41312        -0.45322
C         12.02535        38.08011        -0.79684
C         13.20693        40.28471        -0.85807
C         12.02764        39.57728        -0.63590
C         13.23070        41.71008        -0.83681
C         11.99542        42.40112        -0.58190
C         13.19995        44.56142        -0.61360
C         12.00805        43.80849        -0.45950
C         13.18335        45.95338        -0.42167
C         15.75230        14.64671         0.20405
C         15.31290        15.81749         0.75640
C         14.45353        16.86550         0.35740
C         15.75343        18.96059         1.19826
C         14.53197        18.25088         0.75833
C         15.81079        20.35237         1.20205
C         14.63225        21.16812         0.82985
C         15.85123        23.28858         1.34082
C         14.58830        22.59471         1.22161
C         15.90506        24.70120         1.38603
C         14.67502        25.44996         1.68229
C         15.89441        27.59063         1.47186
C         14.65072        26.92367         1.56301
C         15.92009        29.07670         1.53928
C         14.64610        29.81071         1.35657
C         15.92664        31.82806         0.67886
C         14.67704        31.12292         0.92354
C         15.86709        33.29953         0.49969
C         14.60070        34.01713         0.33823
C         15.80352        36.03724        -0.45706
C         14.60837        35.38756         0.03599
C         15.73677        37.41581        -0.88946
C         14.51948        38.08691        -0.86813
C         15.72747        40.29949        -1.31412
C         14.43843        39.52897        -1.20313
C         15.72283        41.77439        -1.13854
C         14.44572        42.46544        -1.03093
C         15.65965        44.63678        -1.21340
C         14.42601        43.86607        -0.94025
C         15.66281        46.13649        -1.04115
C         14.35288        46.80172        -0.63397
C         15.55285        48.89020         0.00194
C         14.37578        48.17156        -0.10683
C         15.60235        50.28124         0.24987
C         18.22831        10.55631        -0.58092
C         18.14573        11.81026         0.09181
C         16.96981        12.51233         0.19327
C         18.12119        14.61329         1.02030
C         16.80703        13.82740         0.92185
C         18.20369        16.01640         1.23526
C         17.05994        16.77351         1.63242
C         18.29962        18.96892         1.66577
C         16.98050        18.24500         1.64600
C         18.27746        20.41417         1.38892
C         17.05140        21.09617         1.36311
C         18.29027        23.23716         1.13595
C         17.05938        22.53479         1.27033
C         18.32108        24.66804         1.03576
C         17.12001        25.40419         1.19846
C         18.32280        27.52800         0.93859
C         17.12410        26.86820         1.22836
C         18.45944        28.99200         1.05514
C         17.21226        29.80842         1.23244
C         18.39434        31.82499         0.23740
C         17.15819        31.18972         0.70336
C         18.37027        33.21496        -0.24293
C         17.15123        34.01371         0.02659
C         18.13246        35.94309        -1.28428
C         16.99463        35.32966        -0.57805
C         18.18317        37.41930        -1.26088
C         16.97602        38.12537        -1.16519
C         18.21090        40.22746        -1.11779
C         16.98882        39.54723        -1.18760
C         18.17607        41.68522        -0.82982
C         16.92438        42.44213        -1.05106
C         18.32834        44.70076        -1.13436
C         16.99523        43.90748        -1.24706
C         18.18981        46.02524        -0.40309
C         16.96492        46.81972        -0.68529
C         17.91212        48.75086         0.80314
C         16.87569        48.21794        -0.17029
C         18.07629        50.23740         0.52607
C         16.84360        50.98336         0.27906
C         18.10090        53.08590        -0.05725
C         16.86188        52.37876         0.18791
C         18.21310        54.55060        -0.02166
C         20.65363         6.46673        -2.01374
C         20.22878         7.48227        -1.14714
C         19.32272         8.53718        -1.33681
C         20.65136        10.34497        -0.11190
C         19.39369         9.76988        -0.60213
C         20.67644        11.72984         0.29939
C         19.39275        12.37216         0.65658
C         20.66880        14.56140         0.97918
C         19.38240        13.85515         1.02540
C         20.67457        15.98740         0.99447
C         19.46583        16.70888         1.16230
C         20.62164        18.86824         0.65129
C         19.60589        18.17588         1.55656
C         20.63232        20.34425         0.67879
C         19.50180        21.10320         1.15785
C         20.76497        23.22078         0.81681
C         19.50105        22.50618         1.02872
C         20.74190        24.64082         0.46322
C         19.54862        25.33078         0.66310
C         20.79398        27.46223         0.04754
C         19.47670        26.77487         0.40254
C         20.90432        28.93775         0.15807
C         19.70482        29.69997         0.60480
C         20.83492        31.80139        -0.20029
C         19.58058        31.11587         0.18540
C         20.72224        33.05897        -0.98944
C         19.45247        33.80346        -0.85603
C         20.67598        35.94271        -1.67166
C         19.39585        35.16253        -1.46130
C         20.66586        37.37285        -1.30427
C         19.44040        38.09082        -1.21282
C         20.70508        40.23528        -1.09151
C         19.42635        39.51650        -1.08854
C         20.73360        41.74941        -0.91149
C         19.44119        42.43318        -0.63489
C         20.58364        44.50837        -0.01109
C         19.47641        43.90852        -0.56590
C         20.57875        45.92713         0.28707
C         19.30597        46.61300         0.17893
C         20.52146        48.68254         1.08451
C         19.22680        47.95816         0.81091
C         20.48500        50.17745         1.22472
C         19.27247        50.88266         0.70773
C         20.58201        53.08987         0.59636
C         19.40319        52.26342         0.21312
C         20.72548        54.40909        -0.15336
C         19.41925        55.20905        -0.12333
C         20.67786        57.34844        -0.32620
C         19.48056        56.63524        -0.24678
C         20.72505        58.72800        -0.64222
C         23.18895         3.86114        -2.74849
C         22.00577         4.56453        -2.65176
C         23.08686         6.24941        -1.21590
C         21.89559         5.76226        -1.88536
C         23.15656         7.54203        -0.58117
C         21.99494         8.23645        -0.19415
C         23.15745        10.37254        -0.23095
C         21.88523         9.64305        -0.14928
C         23.15418        11.84329         0.13407
C         21.86526        12.44270         0.51047
C         23.13526        14.54450         0.95490
C         21.87924        13.84322         0.85873
C         23.13937        15.96472         1.06162
C         21.93928        16.67232         0.93492
C         23.24811        18.76640         0.38355
C         21.94888        18.08481         0.49598
C         23.39417        19.98633        -0.28023
C         21.60520        21.04558        -0.00687
C         23.15515        23.07282        -0.29153
C         21.96903        22.40960         0.31282
C         23.14683        24.44961        -0.38163
C         21.96874        25.25788        -0.01447
C         23.29539        27.34648        -0.28213
C         22.01508        26.64669        -0.06149
C         23.32139        28.82989        -0.37612
C         22.06609        29.57851        -0.14258
C         23.33226        31.65892        -0.90031
C         22.12880        31.05134        -0.26170
C         23.30522        33.09827        -1.15620
C         21.99282        33.73832        -1.42357
C         23.25066        35.95970        -1.32354
C         21.99677        35.22443        -1.64503
C         23.22971        37.34358        -1.08505
C         21.91672        37.99596        -0.88444
C         23.20275        40.24616        -0.66606
C         21.93286        39.51565        -0.69134
C         23.15137        41.64861        -0.38397
C         21.92789        42.35334        -0.36153
C         23.07042        44.35924         0.68478
C         21.78842        43.66997         0.28540
C         23.02280        45.84316         0.93551
C         21.77514        46.60895         0.67686
C         23.06607        48.75039         1.00859
C         21.82333        48.00456         0.88209
C         23.06663        50.18080         1.11023
C         21.79132        50.91270         1.33809
C         23.10331        53.10243         1.08362
C         21.79892        52.40903         1.16887
C         23.06771        54.58704         1.00826
C         21.85792        55.24987         0.41989
C         23.12894        57.40611         0.30616
C         21.99357        56.58551        -0.30298
C         23.14617        58.86595        -0.05341
C         21.93937        59.44759        -0.69094
C         23.28912        61.41425        -1.24815
C         22.04954        60.73924        -1.22621
C         24.35286         4.36317        -2.13562
C         25.60941         6.02860        -0.78288
C         24.31553         5.54710        -1.40776
C         25.66965         7.51683        -0.52003
C         24.41624         8.23107        -0.36828
C         25.61416        10.28820         0.32315
C         24.40280         9.59530        -0.10061
C         25.65651        11.75762         0.42707
C         24.42008        12.50243         0.51566
C         25.67423        14.64669         0.77591
C         24.38515        13.85406         0.84609
C         25.69778        15.95477         1.59021
C         24.39232        16.71771         1.36087
C         25.72500        18.92008         0.98485
C         24.40902        18.20077         1.10108
C         25.72362        20.29481         0.38554
C         24.46370        20.88617        -0.12465
C         25.60184        22.96770        -0.69721
C         24.40392        22.29810        -0.45047
C         25.62452        24.36149        -1.28572
C         24.32447        25.12801        -1.00826
C         25.70514        27.32329        -1.05055
C         24.39620        26.61619        -0.98046
C         25.72125        28.71426        -1.08172
C         24.39877        29.43711        -1.25588
C         25.72599        31.60360        -1.60885
C         24.46905        30.93302        -1.10431
C         25.76841        33.07184        -1.10701
C         24.46862        33.80369        -1.32465
C         25.69226        35.98445        -1.31205
C         24.48011        35.25779        -1.35451
C         25.66933        37.38253        -1.15821
C         24.44234        38.08246        -0.98021
C         25.63693        40.25065        -0.59028
C         24.43115        39.53124        -0.73916
C         25.60548        41.63136        -0.20204
C         24.37345        42.33587        -0.06175
C         25.56753        44.41355         0.42273
C         24.35788        43.70064         0.34279
C         25.60603        45.82769         0.89776
C         24.31971        46.59435         1.07231
C         25.54461        48.79332         0.95911
C         24.31937        48.07336         0.95095
C         25.50689        50.21299         0.99248
C         24.27384        50.91583         1.03993
C         25.55525        53.12232         0.88951
C         24.28110        52.39312         1.03420
C         25.59146        54.52530         0.81287
C         24.38089        55.34556         1.14762
C         25.61928        57.39441         0.35681
C         24.39766        56.71592         0.51610
C         25.62739        58.78991        -0.01495
C         24.46311        59.50718        -0.24951
C         24.46249        60.82604        -0.79915
C         26.87145         8.16328        -0.41683
C         28.15909        10.35197         0.01759
C         26.96870         9.52117         0.13606
C         28.14526        11.69316         0.40742
C         26.88539        12.37481         0.62951
C         28.19990        14.51669         1.17492
C         26.89564        13.78757         1.06691
C         28.17007        16.00247         1.16101
C         26.99110        16.73497         1.24692
C         28.18450        18.83990         0.64002
C         27.00187        18.15452         0.97593
C         28.23348        20.14644         0.01167
C         26.94250        20.79334        -0.30218
C         28.14138        22.93231        -1.08407
C         26.85498        22.19798        -0.84817
C         28.16524        24.39903        -0.64200
C         26.88783        25.14941        -0.93877
C         28.17212        27.27230        -0.91982
C         26.92034        26.54791        -0.97818
C         28.15500        28.68302        -0.87513
C         26.95323        29.43573        -0.99896
C         28.14950        31.61206        -0.97191
C         26.98587        30.88173        -1.13244
C         28.25362        33.04271        -1.38403
C         26.98988        33.80158        -1.63860
C         28.24737        35.98768        -1.26456
C         26.97751        35.33130        -1.78563
C         28.24381        37.39888        -1.10811
C         26.95269        38.12249        -1.25278
C         28.19141        40.24049        -0.50209
C         26.93134        39.61565        -0.93673
C         28.08915        41.58938         0.07263
C         26.81561        42.34956        -0.01541
C         28.07246        44.49341        -0.06933
C         26.79162        43.73492         0.20134
C         28.08693        45.95819         0.24730
C         26.87232        46.62198         0.75021
C         28.01856        48.78183         0.68884
C         26.82561        48.10631         0.80690
C         28.08823        50.22189         0.94347
C         26.76782        50.96908         1.09901
C         28.02302        53.09726         0.68214
C         26.77965        52.41454         0.85863
C         28.02457        54.49830         0.54922
C         26.82061        55.23268         0.62702
C         26.82397        56.65119         0.48413
C         29.36836        12.44978         0.43638
C         30.64855        14.52997         0.66822
C         29.43694        13.80754         0.75701
C         30.71092        15.92957         0.85906
C         29.46942        16.66971         1.17334
C         30.71554        18.81078         0.44900
C         29.47170        18.19795         0.90666
C         30.70497        20.13503        -0.05476
C         29.42306        20.76808        -0.35991
C         30.71832        22.88189        -1.04627
C         29.41402        22.13498        -0.96009
C         30.68701        24.38835        -1.19949
C         29.42670        25.16368        -1.01094
C         30.68855        27.35368        -1.34973
C         29.43035        26.54263        -0.99686
C         30.68853        28.74646        -0.73030
C         29.40327        29.39585        -0.55263
C         30.66273        31.65851        -0.59194
C         29.38048        30.95629        -0.51536
C         30.68921        33.08461        -0.79004
C         29.49853        33.80883        -1.14599
C         30.72436        35.97352        -1.17505
C         29.45055        35.22355        -1.18994
C         30.70839        37.47622        -1.10909
C         29.43073        38.16123        -0.92205
C         30.66728        40.28214        -0.24959
C         29.41557        39.57184        -0.58523
C         30.64531        41.64872         0.12683
C         29.35332        42.31876         0.39877
C         30.59624        44.48952         0.02560
C         29.31391        43.83251         0.58216
C         30.54819        45.98653         0.20199
C         29.30100        46.65188         0.20330
C         30.54514        48.85848         0.34523
C         29.23993        48.15144         0.04777
C         30.52484        50.26441         0.44194
C         29.31276        50.98219         0.59167
C         29.25535        52.37075         0.56268
C         31.90266        16.65050         0.73797
C         33.15366        18.77211         0.47217
C         31.93702        18.07721         0.59265
C         33.16432        20.15913         0.18410
C         31.94203        20.81152        -0.16916
C         33.20967        23.00504        -0.37749
C         32.00820        22.19754        -0.67442
C         33.20020        24.41093        -0.49393
C         31.99660        25.11744        -1.02765
C         33.17608        27.34635        -0.50675
C         31.99642        26.61929        -1.03461
C         33.11793        28.81224        -0.31517
C         31.85289        29.47645        -0.46020
C         33.09276        31.62057        -0.19659
C         31.84463        30.92799        -0.36489
C         33.07722        33.05029        -0.14887
C         31.89296        33.76188        -0.49148
C         33.03630        35.97815        -0.05149
C         31.96894        35.21114        -0.74646
C         33.12017        37.42388        -0.18315
C         32.03031        38.22449        -0.71310
C         33.10235        40.31455         0.15556
C         31.93617        39.63696        -0.26319
C         33.07064        41.68956         0.48570
C         31.83526        42.35388         0.42470
C         33.07337        44.60468         0.81004
C         31.76546        43.80964         0.69399
C         33.00299        46.02591         0.48417
C         31.78141        46.70854         0.34577
C         31.74343        48.14535         0.34596
C         34.36637        20.91224         0.24284
C         35.55183        23.07065         0.35081
C         34.38215        22.32157         0.07370
C         35.52104        24.47172         0.33211
C         34.32297        25.14410        -0.04393
C         35.52566        27.36119         0.28287
C         34.21300        26.61130         0.30187
C         35.54251        28.72294         0.11554
C         34.31261        29.48117        -0.08799
C         35.55409        31.63474         0.10706
C         34.32548        30.92399        -0.05900
C         35.51470        33.05288         0.20155
C         34.29752        33.74099         0.11919
C         35.51797        35.90346         0.67622
C         34.26146        35.18270         0.40183
C         35.42449        37.34779         0.96003
C         34.34522        38.10082         0.24632
C         35.56456        40.28909         0.89097
C         34.39704        39.60354         0.26070
C         35.50566        41.70014         0.99558
C         34.30410        42.42647         0.79016
C         34.30304        43.82467         0.83072
C         36.69669        25.23673         0.68434
C         37.92180        27.36230         0.93425
C         36.73327        26.61610         0.60919
C         37.97664        28.73045         0.77943
C         36.86727        29.44286         0.02898
C         37.96348        31.58768         0.67751
C         36.79659        30.92630         0.32034
C         38.04411        33.05864         0.60928
C         36.76912        33.82031         0.35515
C         37.93700        35.93389         1.15443
C         36.71257        35.24295         0.75988
C         37.92789        37.29879         1.37024
C         36.69255        38.09174         1.31823
C         36.70820        39.56320         1.19920
C         39.12234        29.48099         1.18603
C         40.29292        31.61884         1.56919
C         39.14274        30.86743         1.11917
C         40.30791        32.98324         1.64340
C         39.17373        33.77843         1.24185
C         39.13110        35.14524         1.39289
O         23.58209        46.15037         2.25809
O         26.48576        45.99114         2.05260
O         18.45538        35.29355        -2.58109
O         22.36805        56.31362        -1.63495
O         29.60387        17.63542         2.25223
O         21.39886        35.63348        -2.91797
O         26.96435        39.11708        -2.32302
O         10.85940        33.99428         2.81335
O         23.93412        25.93157        -2.19038
O         16.29262        44.27020        -2.48742
O         21.19830        32.96115        -2.37660
O         31.72159        35.52096        -2.14668
O         12.53971        31.17415        -0.07232
O         20.81210        53.08988         2.01870
O         18.93004        52.46136        -1.11755
O         37.72673        33.58096        -0.73589
O         22.30167        20.43467        -1.05071
O         33.10354        27.02538        -1.92909
O         32.15703        44.26322         1.97121
O         34.84667        38.88435        -0.93568
O         26.70075        21.02170        -1.72059
O         27.58524        50.58363         2.26679
O         13.21498        29.32285         3.33569
O         33.19270        35.53699         1.35482
O         22.81074        58.40549         1.31819
O         20.87861        41.13607        -2.23354
O         19.79089        27.12583        -0.99978
O         20.86577         7.48282         0.11818
O         14.96809        39.88476        -2.52308
O         17.58254        18.70742         2.92777
O         20.95578        18.24565        -0.59773
O         35.65851        37.69359         2.35217
O         21.77000        38.62998         0.45536
O         28.62120        41.63990         1.47830
O         31.50383        24.74074        -2.36415
O         21.77545        31.84150         0.93927
O         15.93967        16.15093         2.04101
O         25.80966        20.13263         1.83452
O         27.54202        13.94534         2.36216
O         16.76713        33.98071         1.43997
O         29.26222        30.15381         0.69691
O         26.29825         9.63932         1.43498
O         14.88385        46.78432        -2.05636
O         16.73001        29.66878         2.60991
O         27.67448        33.19524        -2.77624
O         28.92766        48.39081        -1.32061
O         19.31033        12.76214         2.06513
O         19.77898        47.98907         2.16550
O         31.59541        38.05789        -2.10154
O          9.83492        29.43650         3.16057
O         19.47447        29.43740         2.04189
O         18.73049        41.89399         0.55164
O         24.13811        17.68217         2.44523
O         31.55119        22.27542        -2.07948
O         14.13387        20.96275        -0.52526
O         22.26197        43.65179         1.67605
O         28.77061        22.42993        -2.27358
O         21.01939        50.55184         2.53652
O          7.39707        31.23372         1.51081
O         23.18959        11.40240        -1.28844
O         21.81930        22.76920         1.72507
O         22.02737        55.24722         1.84612
O         14.03506        24.96380         2.91372
O         23.80341        28.16135         0.83771
O         17.28454        48.00031        -1.53942
O         28.20577        44.39791        -1.53444
H         27.75292        45.16967        -1.93738
O         25.78400        15.07725        -0.61647
H         25.57684        14.31389        -1.19664
O         26.97481        35.61350        -3.21288
H         27.58285        34.96350        -3.63518
O         12.76364        32.01158         3.14808
H         11.56529        33.52823         3.32904
O         12.34284        36.05368         2.11786
H         11.68335        35.56846         2.67772
O         18.72916        45.03055        -2.49540
H         17.90145        45.20791        -3.00330
O         20.20569        18.19993         2.87763
H         19.47531        18.13534         3.53410
O         25.97788        33.03494         0.33347
H         25.20284        32.60054         0.75050
O         21.07317        54.08567        -1.50469
H         21.51911        54.90494        -1.89345
O         28.21876        24.24771         0.83730
H         28.07403        25.13335         1.23586
O         11.88173        37.86193        -2.25293
H         12.61344        38.34232        -2.69886
O         25.72558        15.62282         2.98174
H         25.45258        16.42419         3.48099
O         30.77982        44.19357        -1.37446
H         29.94749        44.43257        -1.85321
O         16.37039        13.50309         2.27222
H         17.12800        13.05869         2.71446
O         23.96510        29.22513        -2.62846
H         24.49817        29.82932        -3.19776
O         25.80152         5.35002         0.47740
H         25.09145         5.63652         1.08819
O         33.71407        26.63732         1.68287
H         34.41355        26.26292         2.25959
O         29.28000        44.11831         1.97938
H         28.81216        43.37729         2.42845
O         25.71243        24.14181        -2.72251
H         25.17433        24.84986        -3.15135
O         37.24364        29.36516        -1.39097
H         38.04513        29.91650        -1.51658
O          8.66177        27.11918         3.08986
H          8.77255        28.07646         3.31499
O         17.30767        48.60011         2.10780
H         18.05036        48.57554         2.75843
O         25.65474        31.52427        -3.04958
H         26.45511        31.98592        -3.40537
O         24.51581        55.66861         2.57462
H         23.61768        55.93891         2.87989
O         30.63068        27.54881        -2.78539
H         31.02303        26.74683        -3.20060
H          6.01210        30.72469        -1.40303
H          5.74102        33.15601        -1.54159
H          9.73392        26.94147        -0.12173
H          7.56547        28.72747        -0.77168
H          6.46500        35.46426        -0.98298
H          7.41782        37.76490        -0.65756
H          9.95909        22.75372         1.33494
H          8.84765        24.69762         2.25786
H          8.59909        40.03092        -0.54348
H          9.83913        42.21587        -0.34130
H         12.41116        18.43559         0.44926
H         11.12892        20.65070         0.92990
H         11.06876        44.33879        -0.24541
H         12.25804        46.42919        -0.06527
H         15.49034        14.39417        -0.83197
H         13.55138        16.59061        -0.21194
H         13.41466        48.65464         0.12570
H         14.66602        50.85962         0.25305
H         17.31167        10.15313        -1.03696
H         16.05088        12.05431        -0.20422
H         15.92183        52.94495         0.26182
H         17.28145        55.13234         0.06386
H         20.03054         6.22612        -2.88894
H         18.53439         8.44374        -2.09948
H         18.52643        57.18388        -0.31730
H         19.79292        59.24403        -0.92508
H         23.23253         2.92668        -3.32433
H         21.10697         4.19069        -3.16333
H         23.32992        62.42450        -1.67942
H         21.16421        61.22284        -1.66380
H         25.30478         3.82441        -2.24533
H         26.46840         5.72418        -1.43393
H         26.60024        59.27454        -0.18760
H         25.41727        61.36270        -0.89823
H         27.80188         7.63493        -0.67662
H         29.08978         9.90245        -0.36001
H         28.97565        55.02776         0.39343
H         27.78902        57.16955         0.38260
H         30.29839        11.92721         0.16504
H         31.56899        13.99121         0.39690
H         31.47560        50.82165         0.45913
H         30.17409        52.94240         0.36247
H         32.84838        16.09994         0.62427
H         34.10431        18.24604         0.63792
H         33.94371        46.59333         0.41461
H         32.69716        48.69203         0.41790
H         35.29889        20.40188         0.52487
H         36.47169        22.54730         0.64942
H         36.40446        42.24642         1.31811
H         35.26513        44.35829         0.84776
H         37.60726        24.68505         0.96159
H         38.78531        26.82157         1.35183
H         38.87496        37.82015         1.57731
H         37.61476        40.09847         1.52079
H         39.98721        28.94368         1.60449
H         41.17520        31.04873         1.89584
H         41.19612        33.50151         2.03387
H         40.00875        35.66500         1.80697
