         424
 CSIRO Nanostructure Databank - Neutral Graphene Oxide Data Set
C          1.18907         3.63000        -1.23235
C         -0.01486         4.32253        -1.15111
C          1.16405         6.40578        -0.63630
C         -0.03502         5.68949        -0.86593
C          1.17098         7.82697        -0.35683
C         -0.01078         8.60431        -0.45654
C          1.21682        10.66434         0.06463
C          0.02875         9.97375        -0.31242
C          1.18851        12.11980        -0.02316
C          0.43874        12.80908        -1.03695
C          1.87791        14.87167        -0.77728
C          0.71234        14.10855        -1.35173
C          1.57749        16.30770        -0.39796
C          0.39184        16.97642        -0.72867
C          1.35524        19.11706        -0.04788
C          0.26685        18.34877        -0.52442
C          1.28932        20.55824         0.07606
C          0.10223        21.29225        -0.17068
C          1.22403        23.43049         0.25045
C          0.06242        22.67086        -0.06404
C          1.19526        24.88682         0.30285
C          0.00666        25.63675        -0.06024
C          1.04498        27.77994         0.67952
C         -0.06640        26.98322         0.05048
C          1.11813        29.22955         0.22058
C         -0.05582        29.97957         0.14864
C          1.13811        32.08827        -0.22775
C         -0.04363        31.38358        -0.01449
C          1.18845        33.51424        -0.35890
C         -0.00492        34.33940        -0.22265
C          1.23835        36.31235        -1.05890
C          0.00836        35.66936        -0.46723
C          1.30308        37.80816        -0.90714
C          3.65089         3.61804        -1.11887
C          2.41691         4.30455        -1.01653
C          3.63176         6.39015        -0.44464
C          2.40049         5.70396        -0.70083
C          3.61367         7.74289        -0.05076
C          2.38913         8.48358        -0.00057
C          3.67959        10.50422         0.64560
C          2.39097         9.88799         0.32717
C          3.78015        11.81727         1.16677
C          2.03105        12.95069         0.76817
C          3.53701        14.89474         1.26928
C          2.46861        14.20982         0.43191
C          3.77511        16.32281         0.77521
C          2.63710        17.01693         0.22644
C          3.70797        19.16910         0.74125
C          2.55967        18.43776         0.30265
C          3.64666        20.57674         0.80759
C          2.45612        21.28325         0.47141
C          3.65631        23.44456         0.74289
C          2.42115        22.71970         0.51120
C          3.62465        24.90859         0.72552
C          2.36424        25.61229         0.58971
C          3.54877        27.79034         0.59585
C          2.36528        27.05486         0.57957
C          3.58225        29.20181         0.29860
C          2.37618        29.88415         0.06378
C          3.66707        32.03370        -0.23659
C          2.39134        31.28351        -0.51840
C          3.67361        33.44001        -0.32564
C          2.43836        34.17151        -0.48962
C          3.67090        36.29138        -0.39447
C          2.48714        35.60050        -0.59472
C          3.66571        37.77162        -0.09791
C          2.41147        38.46652        -0.55399
C          6.10559         3.59989        -1.13993
C          4.88271         4.28540        -0.95066
C          6.11717         6.37138        -0.48595
C          4.88283         5.68668        -0.60423
C          6.14867         7.74239        -0.10553
C          4.89689         8.35844         0.43957
C          6.12794        10.58040         0.43506
C          4.90419         9.85757         0.40543
C          6.13065        11.99351         0.66859
C          4.90268        12.62480         0.99193
C          6.15851        14.79955         1.53100
C          4.85433        14.05935         1.40272
C          6.08862        16.32058         1.81089
C          4.92982        17.03451         1.10549
C          6.12666        19.22835         1.25202
C          4.92202        18.46322         1.05883
C          6.13081        20.61170         1.17882
C          4.81806        21.32394         1.37018
C          6.09950        23.51151         1.30588
C          4.83158        22.76869         0.98332
C          6.06934        24.87374         0.65598
C          4.79750        25.61507         0.83062
C          6.12104        27.78888         0.58187
C          4.81910        27.07893         0.83407
C          6.08205        29.21890         0.23443
C          4.86302        29.89379         0.15459
C          6.11737        32.02443        -0.04616
C          4.87465        31.32316        -0.05061
C          6.13218        33.44495        -0.15173
C          4.90594        34.15576        -0.25467
C          6.14299        36.29149        -0.31366
C          4.91645        35.58565        -0.28752
C          6.14705        37.74143        -0.47540
C          4.94720        38.44254        -0.50176
C          8.54669         3.62506        -1.41405
C          7.35912         4.26292        -1.06608
C          8.55924         6.37009        -0.56228
C          7.35948         5.68652        -0.71220
C          8.58950         7.78428        -0.32951
C          7.34571         8.46726        -0.07770
C          8.56571        10.62384         0.08675
C          7.36276         9.89049         0.17781
C          8.53881        12.04194         0.29128
C          7.36563        12.73537         0.66580
C          8.58852        14.88671         0.87664
C          7.40023        14.14879         1.00427
C          8.64630        16.31893         1.12128
C          7.43995        17.03551         1.60965
C          8.63907        19.23388         0.99244
C          7.41758        18.52430         1.40858
C          8.62855        20.63123         0.92356
C          7.36981        21.36337         1.06625
C          8.64615        23.54729         1.06377
C          7.37023        22.74060         1.02994
C          8.62013        24.77590         0.11119
C          7.31547        25.56636         0.21114
C          8.55591        27.72858         0.23232
C          7.35884        27.04179         0.27961
C          8.57201        29.17897         0.22295
C          7.34520        29.89612         0.14052
C          8.59474        32.01615         0.02420
C          7.35603        31.31564         0.04190
C          8.60213        33.44130        -0.09411
C          7.37272        34.15439        -0.16549
C          8.61963        36.27126        -0.38169
C          7.37826        35.57896        -0.27988
C          8.62274        37.70979        -0.55198
C          7.40139        38.40561        -0.61418
C         11.06534         3.55399        -1.23369
C          9.83732         4.39168        -1.46370
C         11.08931         6.32269        -0.55200
C          9.81069         5.53882        -0.45375
C         11.04580         7.79763        -0.83863
C          9.80000         8.50043        -0.34513
C         11.05442        10.59962        -0.15604
C          9.81903         9.91784        -0.16555
C         11.09305        12.06966        -0.11397
C          9.75649        12.82262         0.07202
C         11.03949        14.88837         0.42950
C          9.81559        14.22609         0.48348
C         11.02978        16.37798         0.27424
C          9.79713        17.04325         0.84230
C         11.06388        19.18375         0.66458
C          9.84064        18.49091         0.85493
C         11.08427        20.60338         0.64690
C          9.86151        21.33529         0.75859
C         11.09292        23.44215         0.52545
C          9.89286        22.75292         0.74503
C         11.08556        24.90672         0.46287
C          9.85414        25.61048         0.35536
C         11.03077        27.75012         0.40255
C          9.81877        27.00689         0.28409
C         11.05744        29.17545         0.35578
C          9.81124        29.88167         0.23167
C         11.07333        31.99824         0.05819
C          9.82324        31.30052         0.12142
C         11.07234        33.41378        -0.12259
C          9.84118        34.13681        -0.17537
C         11.09314        36.24705        -0.48579
C          9.84373        35.55660        -0.34424
C         11.09078        37.68899        -0.62143
C          9.86066        38.38468        -0.65178
C         13.45004         3.45350        -0.62419
C         12.25166         4.15435        -0.77171
C         13.53540         6.31578        -0.52932
C         12.25883         5.62014        -0.58592
C         13.50953         7.76532        -0.48144
C         12.33769         8.48222        -0.47897
C         13.49527        10.58765         0.10631
C         12.31886         9.91609        -0.21326
C         13.51255        11.98416         0.68666
C         12.29962        12.77614         0.28314
C         13.54468        14.86520         0.58406
C         12.29185        14.16879         0.40167
C         13.55000        16.30951         1.01657
C         12.30845        17.07700         0.65796
C         13.57314        19.19532         0.63957
C         12.31917        18.45276         0.66418
C         13.56459        20.58244         0.53770
C         12.32702        21.31026         0.55213
C         13.58421        23.44883         0.52855
C         12.33296        22.72848         0.46955
C         13.60907        24.93359         0.29808
C         12.28237        25.62551         0.51069
C         13.45460        27.77100         0.81651
C         12.25016        27.04777         0.55413
C         13.54363        29.17159         0.61350
C         12.30395        29.87050         0.36912
C         13.54518        31.98317        -0.03497
C         12.30614        31.28903         0.15832
C         13.51966        33.36852        -0.33609
C         12.30916        34.09742        -0.31996
C         13.55233        36.23470        -0.66111
C         12.30466        35.53141        -0.50628
C         13.54875        37.67722        -0.74527
C         12.31669        38.37318        -0.72514
C         15.94282         3.45555        -0.67608
C         14.70422         4.12002        -0.13981
C         15.99223         6.30462        -0.27231
C         14.71653         5.61310        -0.39002
C         16.01589         7.68311        -0.11997
C         14.81755         8.50325        -0.50559
C         16.05222        10.58149         0.35147
C         14.74595         9.83090         0.20882
C         16.01521        12.05532         0.30721
C         14.80209        12.73936         0.39960
C         16.00295        14.91619         0.36304
C         14.76250        14.18113         0.45504
C         16.04689        16.31349         0.50257
C         14.80947        17.06395         0.65610
C         16.11621        19.15193         0.29612
C         14.80416        18.43947         0.57270
C         16.08929        20.62831         0.59152
C         14.83289        21.34784         0.21721
C         16.02576        23.46657         0.99534
C         14.79496        22.79108         0.65695
C         15.99907        24.91725         1.47312
C         14.70888        25.61786         1.05989
C         16.32143        27.97300         1.12351
C         14.50864        26.92957         1.34886
C         16.08686        29.25006         0.52528
C         14.81251        29.90305         0.47217
C         16.03550        31.97567        -0.22430
C         14.79416        31.26709         0.05275
C         16.03636        33.36025        -0.56764
C         14.73955        34.03427        -0.91368
C         15.99453        36.21842        -0.89315
C         14.76350        35.53089        -0.74338
C         15.99333        37.65847        -0.97414
C         14.77129        38.35916        -0.89648
C         18.36848         3.47905        -1.14226
C         17.15041         4.14252        -0.76592
C         18.44933         6.22796        -0.56508
C         17.21916         5.55538        -0.45624
C         18.55024         7.66087        -0.22354
C         17.27530         8.41000         0.06562
C         18.49437        10.58759        -0.12598
C         17.29578         9.88730         0.00149
C         18.48742        12.03792         0.00549
C         17.26573        12.72813         0.12605
C         18.57698        14.95276         0.12474
C         17.22769        14.19307         0.02531
C         18.52175        16.34975         0.57448
C         17.29754        17.00597         0.62597
C         18.54028        19.18373         1.00063
C         17.22659        18.44645         1.07831
C         18.52014        20.59170         0.99372
C         17.24805        21.31660         0.86304
C         18.49923        23.50565         1.34178
C         17.21552        22.76410         1.03637
C         18.44731        24.93909         0.82669
C         17.27496        25.66238         0.99131
C         18.33429        27.62471        -0.23980
C         17.29399        27.07910         0.70507
C         18.44079        29.12385        -0.14692
C         17.28920        29.87717         0.03287
C         18.50273        31.96007        -0.53451
C         17.27509        31.29691        -0.20993
C         18.49028        33.36647        -0.76980
C         17.23529        34.06083        -0.77133
C         18.44062        36.20171        -1.15786
C         17.22511        35.50029        -0.96954
C         18.42574        37.63725        -1.28031
C         17.21631        38.33909        -1.17304
C         19.57095         4.15327        -1.19393
C         20.89448         6.27578        -0.91352
C         19.63979         5.54507        -0.91723
C         20.95739         7.62682        -0.79829
C         19.68865         8.44808        -0.84520
C         20.92191        10.61342        -0.33188
C         19.74272         9.89103        -0.36361
C         20.93353        12.00115        -0.06517
C         19.75400        12.73568         0.07376
C         20.90139        14.82742         0.86070
C         19.78869        14.16154         0.35624
C         20.90204        16.22346         1.07993
C         19.75344        17.00702         0.93313
C         20.96977        19.19615         1.10058
C         19.75789        18.46161         1.04931
C         20.96466        20.57636         1.07665
C         19.75078        21.31465         1.01425
C         20.90483        23.46886         0.62060
C         19.74361        22.74740         0.93168
C         20.88534        24.83707         0.37601
C         19.67205        25.58652         0.36716
C         20.77598        27.57113        -0.72956
C         19.65289        26.90660        -0.11845
C         20.80948        28.92281        -0.87598
C         19.79135        29.78171        -0.17008
C         20.90890        31.93465        -0.85601
C         19.73326        31.23862        -0.58509
C         20.90053        33.31688        -1.08371
C         19.71161        34.05646        -1.03561
C         20.86434        36.23560        -1.44411
C         19.69522        35.50605        -1.22560
C         20.83981        37.64045        -1.58716
C         19.65326        38.33370        -1.49960
O          7.68211        17.92700         2.75256
O         18.18108         7.92912         1.15016
O         17.92370        14.71310        -1.15928
O         15.45904        27.58245         2.16120
O          6.37584        24.97993        -0.78758
O          5.53493        14.13166         2.69007
O         10.36750        12.64831        -1.25487
O          5.62635        27.58669         1.97792
O         15.37625         9.93580         1.52677
O          2.66694        12.32321         1.85397
O          9.95399         5.03468        -2.79451
H          9.97795         4.32454        -3.47028
O         19.31610         8.54549        -2.26393
H         20.02817         9.03255        -2.72941
O         14.86620        21.42354        -1.26330
H         15.28284        20.58534        -1.58077
O         16.80737        18.46117         2.47455
H         17.52848        18.07037         3.01063
O          4.93742         8.03865         1.89385
H          4.14387         8.44773         2.30214
O         18.60724        23.60064         2.80258
H         19.34837        24.20932         3.00475
O         15.04738         8.87501        -1.91406
H         14.86683         8.08603        -2.46809
O         14.74207         3.95944         1.33505
H         15.48025         4.51328         1.66864
O          1.15485        36.07308        -2.50756
H          1.14372        35.10123        -2.64086
O          9.76933         4.91297         0.85992
H          9.73907         5.62081         1.53650
O          3.02148        15.04862         2.60959
H          3.80671        15.19053         3.19189
O         17.86498        27.33866        -1.61513
H         17.62618        26.38730        -1.64868
O          2.92409        14.92293        -1.81819
H          2.54046        15.37532        -2.59885
O         10.93954        16.58890        -1.19494
H         10.32277        15.91472        -1.55341
O         20.23114        29.80166         1.24682
H         19.63864        30.41903         1.72690
O          2.37778        31.09595        -1.98885
H          1.55298        30.61034        -2.20496
O         14.60440        33.82980        -2.37976
H         13.77591        34.27666        -2.65742
O          5.73186        16.44602         3.20866
H          6.25326        17.20798         3.56404
O         13.54367        16.24409         2.49935
H         13.72114        17.15035         2.83218
O         16.04089        24.88727         2.92064
H         15.97801        25.82079         3.22331
O          3.64266        37.86634         1.38090
H          4.45982        37.43499         1.71104
O         13.44260        11.80669         2.14549
H         14.16603        11.17237         2.37768
O          4.63007        21.35337         2.86620
H          3.68303        21.55673         3.02947
O         10.95382         7.85656        -2.31645
H         10.49899         7.03296        -2.61798
O          6.07670        23.75566         2.75867
H          5.72907        22.92169         3.16820
O          8.75753        24.28793        -1.24311
H          7.84799        24.23338        -1.62132
O         13.91087        25.09621        -1.13643
H         13.33842        24.47247        -1.63234
O         16.38564        19.03786        -1.13570
H         16.39810        18.08256        -1.36424
O          8.79546        24.06171         2.41939
H          7.90676        24.04268         2.85603
O          0.73925        27.83555         2.12206
H          1.50988        28.24781         2.56764
H          1.19787         2.55580        -1.46583
H         -0.96280         3.79152        -1.31661
H         -1.00547         6.20006        -0.80931
H         -0.96600         8.12745        -0.71282
H         -0.89428        10.55169        -0.45946
H         -0.32850        12.26550        -1.60872
H          0.16590        14.57807        -2.18420
H         -0.44584        16.42155        -1.17437
H         -0.67466        18.83894        -0.80615
H         -0.82124        20.76204        -0.44109
H         -0.89311        23.17979        -0.24748
H         -0.85459        25.09586        -0.47765
H         -0.98670        27.50275        -0.25424
H         -1.02395        29.48687         0.31388
H         -1.00183        31.91544         0.06508
H         -0.93607        33.86587         0.12027
H         -0.90904        36.26603        -0.35443
H          0.40047        38.36909        -1.19703
H          3.64854         2.54646        -1.36874
H          2.40432        39.56650        -0.49703
H          6.08006         2.53277        -1.40790
H          4.96189        39.53793        -0.60974
H          8.52233         2.58071        -1.76338
H          7.41133        39.49772        -0.74712
H         11.05363         2.48050        -1.47890
H          9.86781        39.47891        -0.76652
H         13.47228         2.36898        -0.81306
H         12.31776        39.46969        -0.81457
H         15.91944         2.37391        -0.87950
H         14.77201        39.45608        -0.98004
H         18.33110         2.40386        -1.37045
H         17.21594        39.43608        -1.25614
H         20.49227         3.61362        -1.45825
H         21.82496         5.69183        -0.98943
H         21.93783         8.12596        -0.80121
H         21.88478        10.11262        -0.50722
H         21.90410        12.51409        -0.01865
H         21.82705        14.27103         1.06570
H         21.84299        16.68914         1.40351
H         21.93161        18.66706         1.14076
H         21.92545        21.10639         1.12417
H         21.85576        22.93669         0.47506
H         21.82255        25.33351         0.09113
H         21.61732        26.97086        -1.11085
H         21.66092        29.39713        -1.38517
H         21.86975        31.40161        -0.87589
H         21.85732        33.81440        -1.29066
H         21.83557        35.72643        -1.50321
H         21.78300        38.17781        -1.75882
H         19.63503        39.42861        -1.59755
