         661
 CSIRO Nanostructure Databank - Neutral Graphene Oxide Data Set
C          5.89816        31.72207        -0.24600
C          5.93084        33.06145        -0.50513
C          8.29813        27.48383         0.63009
C          8.30166        28.87650         0.45317
C          7.09160        29.60367         0.24190
C          8.37076        31.66028        -0.13003
C          7.10802        30.96726        -0.02608
C          8.39083        33.01512        -0.48218
C          7.18240        33.77672        -0.59722
C          8.44428        35.91497        -0.56340
C          7.22257        35.17264        -0.67317
C          8.45002        37.26874        -0.30925
C         10.80525        23.25904         0.53062
C         10.76050        24.64014         0.74707
C          9.54759        25.34992         0.80259
C         10.72745        27.51108         0.97088
C          9.50567        26.77102         0.82391
C         10.77429        28.87978         0.73335
C          9.55716        29.58733         0.43508
C         10.87091        31.64363         0.03538
C          9.59504        30.95585         0.12866
C         10.91950        32.94481        -0.42854
C          9.68058        33.66430        -0.73938
C         11.02472        35.82375        -0.44146
C          9.72168        35.18585        -0.75592
C         11.03124        37.26857        -0.06704
C          9.69016        38.01099        -0.02270
C         10.93535        40.14502        -0.22459
C          9.73822        39.45398        -0.20866
C         10.92818        41.58539        -0.27404
C         13.33985        19.10251        -0.14401
C         13.31310        20.45476         0.17969
C         12.08506        21.20097         0.14989
C         13.22508        23.15785         1.21473
C         12.02632        22.52907         0.53686
C         13.28728        24.65995         1.09926
C         12.05452        25.42853         0.68673
C         13.22193        27.52785         1.37377
C         11.93232        26.75373         1.45117
C         13.25980        28.86616         1.06825
C         12.03873        29.59209         0.73953
C         13.36705        31.63177         0.28381
C         12.09048        30.93179         0.38025
C         13.42116        32.90841        -0.23633
C         12.21387        33.61754        -0.81050
C         13.49162        35.83478        -0.20956
C         12.18471        35.11767        -0.49093
C         13.46817        37.31042        -0.69097
C         12.24466        38.05626        -0.31866
C         13.43870        40.22729        -0.37254
C         12.21324        39.44778        -0.30153
C         13.36313        41.64197        -0.19143
C         12.08795        42.31291        -0.22214
C         13.29467        44.56320         0.07526
C         12.00952        43.82451        -0.26282
C         13.26729        45.92062         0.09300
C         15.65524        14.75062        -0.67610
C         15.66057        16.10514        -0.36353
C         14.51932        16.93639        -0.48586
C         15.75743        18.95035         0.21507
C         14.54997        18.31801        -0.12560
C         15.80296        20.40142         0.40481
C         14.54249        21.16045         0.50148
C         15.75690        23.20923         1.19586
C         14.54150        22.48753         0.89866
C         15.72239        24.60166         1.45236
C         14.45439        25.31403         1.37513
C         15.73797        27.50530         1.60146
C         14.44453        26.76801         1.81489
C         15.72466        28.88233         1.46236
C         14.52279        29.59893         1.09984
C         15.85756        31.66030         0.69870
C         14.58145        30.93601         0.70449
C         15.90875        32.94876         0.17928
C         14.75030        33.49902        -0.61908
C         15.97389        35.79437        -0.75538
C         14.69413        35.04611        -0.71110
C         16.02273        37.28755        -0.74891
C         14.75906        38.09935        -0.88556
C         15.85247        40.37449        -0.37103
C         14.70803        39.57781        -0.57097
C         15.76922        41.71741         0.11532
C         14.53741        42.41831         0.08709
C         15.73199        44.53143         0.67030
C         14.53022        43.83182         0.32705
C         15.75601        45.98322         0.52549
C         14.44451        46.74711         0.52822
C         15.59904        48.72794        -0.55003
C         14.47537        48.10958        -0.13683
C         15.61839        50.04022        -1.31783
C         18.21378        10.63111        -1.89875
C         18.16430        11.95055        -1.34172
C         16.98222        12.66531        -1.33510
C         18.09150        14.45235         0.07721
C         16.83520        13.88830        -0.53466
C         18.07427        15.87399         0.51589
C         16.87080        16.72864         0.24541
C         18.15824        18.74354         0.98418
C         17.07243        18.22771         0.04677
C         18.15961        20.15442         1.45893
C         17.04371        21.03376         0.97293
C         18.17653        23.14579         1.60295
C         17.00299        22.47721         1.34451
C         18.21879        24.61729         1.24820
C         16.94353        25.35201         1.58797
C         18.23277        27.48680         1.73060
C         16.96674        26.75061         1.67380
C         18.21137        28.86603         1.81017
C         16.93498        29.67274         1.88297
C         18.29255        31.69885         1.25796
C         17.04572        31.03653         1.23603
C         18.45138        33.00934         0.49345
C         17.12314        33.81195         0.39884
C         18.42101        35.86226        -0.10863
C         17.27710        34.99628        -0.60297
C         18.48089        37.18018        -0.51525
C         17.26844        37.76940        -1.05877
C         18.27451        40.28753         0.14589
C         17.20987        39.92431        -0.61796
C         18.17396        41.56882         0.94515
C         16.93409        42.36843         0.58803
C         18.19193        44.28897         1.33479
C         16.91206        43.72506         0.91818
C         18.19326        46.37061         0.81379
C         16.91937        46.74511         0.32435
C         18.18628        48.71815        -0.73209
C         16.88667        48.00194        -0.47501
C         18.16901        50.17807        -0.99554
C         16.88988        50.85676        -1.13026
C         18.08115        53.02410        -1.21261
C         16.86728        52.22521        -1.16302
C         18.03031        54.37900        -1.38738
C         20.69348         6.55988        -3.09215
C         20.61324         7.86731        -2.56734
C         19.39036         8.54932        -2.40249
C         20.53447        10.29163        -0.98907
C         19.35016         9.83837        -1.81998
C         20.54415        11.78102        -0.71289
C         19.40876        12.51800        -0.79628
C         20.66061        14.56100         0.15950
C         19.41386        14.00367        -0.52107
C         20.60307        15.94856         0.62848
C         19.36313        16.55095         0.77374
C         20.96060        18.92270         1.62846
C         19.13256        17.85987         1.37487
C         20.76160        20.27865         1.47540
C         19.46001        20.90924         1.79526
C         20.73189        23.16474         1.66109
C         19.44276        22.41783         1.83564
C         20.70944        24.64093         1.49281
C         19.50471        25.34069         1.56374
C         20.74347        27.43587         1.74624
C         19.50184        26.75876         1.68960
C         20.78028        28.88313         2.03281
C         19.44425        29.63257         2.04844
C         20.73047        31.79028         1.89937
C         19.45212        31.06485         1.73323
C         20.73471        33.28755         1.67068
C         19.52250        33.93571         1.06013
C         20.42090        36.26034         1.19588
C         19.43733        35.28703         0.75355
C         20.74494        37.39805         0.51444
C         19.66096        38.05854        -0.23549
C         20.70647        40.20245         0.92270
C         19.57744        39.58513         0.10110
C         20.68971        41.70859         1.20349
C         19.45965        42.35565         0.54593
C         20.64794        44.57137         0.56950
C         19.40527        43.79300         0.96975
C         20.66345        46.08446         0.55687
C         19.44413        46.82790         0.35061
C         20.67313        48.77453        -0.43395
C         19.46766        48.11049        -0.28429
C         20.66239        50.26933        -0.61379
C         19.35236        50.87682        -1.04541
C         20.55054        53.00094        -1.40468
C         19.36914        52.31883        -1.22813
C         20.57576        54.50562        -1.28133
C         19.24499        55.21378        -1.73624
C         20.11707        57.54018        -1.43678
C         19.19871        56.58820        -1.06411
C         20.53018        58.77648        -0.87512
C         23.21307         3.77993        -3.46545
C         22.06623         4.54637        -3.66989
C         23.08247         6.79238        -3.38710
C         21.93774         5.94683        -3.39603
C         23.07494         8.06135        -2.77338
C         21.84017         8.58856        -2.24584
C         23.08521        10.47108        -1.23743
C         21.84611         9.78336        -1.54792
C         23.05789        11.70824        -0.61264
C         21.78953        12.31390        -0.03800
C         23.12382        14.49034         0.19246
C         21.83316        13.83013         0.10783
C         23.17277        15.93117         0.55151
C         21.90900        16.65177         0.93302
C         23.08801        18.84561         0.50648
C         22.01032        18.15995         0.98295
C         23.08318        20.36190         0.41610
C         21.88287        21.06416         1.01478
C         23.19872        23.15279         1.13078
C         21.93481        22.42499         1.21068
C         23.18685        24.58697         1.36009
C         21.96617        25.31795         1.47421
C         23.23459        27.44923         1.60728
C         21.97301        26.74476         1.57964
C         23.26884        28.90370         1.66767
C         22.02907        29.64155         1.78371
C         23.27450        31.74360         1.75234
C         22.01263        31.02618         1.80750
C         23.30429        33.11056         1.69909
C         22.08816        33.88087         1.31018
C         23.37079        35.98480         1.33182
C         22.28756        35.29728         1.75030
C         23.35127        37.41490         1.00446
C         22.07767        38.08127         0.60346
C         23.33080        40.31265         0.78548
C         22.03036        39.52944         0.95956
C         23.27255        41.73661         1.36137
C         21.99503        42.42177         0.92048
C         23.24915        44.60516         0.77189
C         21.94180        43.86977         0.97797
C         23.14305        45.94334         0.11751
C         21.89127        46.73138         0.22525
C         23.16842        48.75680        -0.41952
C         21.91291        48.07818        -0.19539
C         23.15023        50.12207        -1.01415
C         21.86970        50.81142        -1.35110
C         23.10775        53.04006        -1.45624
C         21.82736        52.28556        -1.78869
C         23.13457        54.41644        -1.58362
C         21.88763        55.13835        -1.76080
C         23.15960        57.27662        -1.75329
C         21.99571        56.48209        -2.04126
C         23.05277        58.67194        -1.46821
C         21.81529        59.36548        -1.10572
C         23.11063        61.45297        -0.81911
C         21.90967        60.73956        -0.76605
C         24.48327         4.20122        -3.01348
C         25.98133         6.11960        -2.34961
C         24.94073         5.52920        -3.08571
C         26.18307         7.52613        -2.30531
C         24.28236         8.74839        -2.52103
C         25.61939        10.37620        -1.23816
C         24.36245         9.85937        -1.64359
C         25.62448        11.68052        -0.54238
C         24.31829        12.36642        -0.24066
C         25.51622        14.59856        -0.52285
C         24.30436        13.84031        -0.07272
C         25.55563        16.05119        -0.16828
C         24.39296        16.69231         0.17771
C         25.58779        18.91641         0.09322
C         24.28342        18.16672        -0.11195
C         25.58696        20.25880         0.35538
C         24.37979        20.92721         0.99614
C         25.70656        23.09588         1.23311
C         24.37813        22.44452         0.98246
C         25.63991        24.59148         1.27243
C         24.43395        25.28970         1.43852
C         25.71078        27.42785         1.84621
C         24.42993        26.72798         1.58086
C         25.76372        28.88714         1.61337
C         24.49051        29.58603         1.59436
C         25.72354        31.71057         1.40449
C         24.53178        31.02170         1.62352
C         25.81788        33.12786         1.63410
C         24.56887        33.90836         1.94128
C         25.82655        36.04988         1.51928
C         24.63145        35.21088         1.10608
C         25.79094        37.42287         1.55803
C         24.57732        38.19271         1.29969
C         25.81863        40.32514         1.30894
C         24.57750        39.56375         1.22378
C         25.77214        41.77195         1.06621
C         24.55515        42.47406         0.99529
C         25.72294        44.53523         0.31845
C         24.53042        43.85782         0.66701
C         25.72598        45.94751        -0.03094
C         24.43542        46.65234        -0.20818
C         25.66023        48.82436        -0.51170
C         24.40592        48.11836        -0.34395
C         25.67073        50.19995        -0.75558
C         24.36756        50.96227        -0.71725
C         25.67957        53.01123        -1.52121
C         24.36949        52.27092        -1.47249
C         25.63089        54.47930        -1.52416
C         24.39971        55.14887        -1.61524
C         25.61407        57.31089        -1.47817
C         24.39016        56.58043        -1.62177
C         25.53887        58.71662        -1.42605
C         24.29796        59.38996        -1.34763
C         24.29703        60.79265        -1.09540
C         27.01908         8.25270        -1.47642
C         28.06245        10.38372        -0.93111
C         26.89265         9.68354        -1.28386
C         28.09806        11.79309        -0.73335
C         26.86050        12.49203        -0.58923
C         28.02612        14.63478        -0.57271
C         26.82445        13.87953        -0.46901
C         27.99352        16.06573        -0.60694
C         26.79942        16.77828        -0.40945
C         28.02701        18.92587        -0.33442
C         26.82022        18.22282        -0.26623
C         28.08613        20.34708        -0.10143
C         26.79326        21.05395         0.04901
C         28.13793        23.17204         0.40821
C         26.81611        22.52747         0.35093
C         28.13618        24.61376         0.63947
C         26.89854        25.32745         1.11188
C         28.29425        27.42421         1.62685
C         27.00672        26.66548         1.76680
C         28.26104        28.89279         1.35999
C         26.93246        29.54438         1.30991
C         28.22595        31.69710         0.99931
C         26.90215        30.97342         0.82495
C         28.16370        33.18896         0.83738
C         26.99539        33.82386         1.53347
C         28.32151        35.99005         1.57139
C         27.05589        35.26926         1.97297
C         28.33900        37.44529         1.82292
C         27.02387        38.21528         1.83208
C         28.29239        40.48268         1.74670
C         27.01402        39.67345         1.54228
C         28.25702        41.81305         1.01157
C         27.00697        42.47080         0.84848
C         28.19030        44.49589         0.10524
C         26.97262        43.83514         0.41944
C         28.13742        45.84428        -0.48939
C         26.88372        46.61598        -0.38156
C         28.11747        48.74201        -0.68555
C         26.91958        48.06746        -0.55733
C         28.17132        50.23913        -0.45456
C         26.88977        50.94598        -0.82321
C         28.12089        53.09567        -0.99773
C         26.90913        52.31779        -1.07064
C         28.08713        54.45916        -1.17660
C         26.85905        55.20123        -1.37182
C         26.84149        56.59774        -1.36581
C         29.30132        12.52860        -0.69510
C         30.50873        14.67256        -0.60858
C         29.28605        13.93480        -0.63770
C         30.53652        16.06600        -0.69837
C         29.24613        16.76842        -1.10295
C         30.56832        18.95723        -0.57249
C         29.26551        18.26050        -0.80627
C         30.57586        20.25545         0.20334
C         29.29205        21.03142         0.02096
C         30.59984        23.15466         0.12921
C         29.34033        22.47058         0.18786
C         30.57896        24.66494        -0.00178
C         29.46875        25.24257         0.84359
C         30.71055        27.42594         0.81868
C         29.53072        26.68649         1.24520
C         30.74866        28.86997         0.44721
C         29.34274        29.56230         0.49852
C         30.68676        31.74007         0.88668
C         29.41267        31.03227         0.89238
C         30.66497        33.18719         0.87097
C         29.47468        33.88529         1.03228
C         30.69797        36.04438         0.86482
C         29.46905        35.31757         1.18651
C         30.73033        37.42771         0.92971
C         29.61385        38.18482         1.53833
C         30.75022        40.38041         0.86404
C         29.58526        39.68716         1.47355
C         30.72378        41.77468         0.69086
C         29.45303        42.47673         0.68131
C         30.67277        44.54113        -0.02013
C         29.42560        43.83170         0.21477
C         30.67920        45.90951        -0.35719
C         29.43551        46.56249        -0.79127
C         30.65794        48.80064        -0.66903
C         29.40990        48.05733        -1.11054
C         30.64092        50.17825        -0.70612
C         29.39462        50.92117        -1.10594
C         29.43666        52.40048        -0.69144
C         31.75424        16.76632        -0.57286
C         33.02882        18.88124        -0.36410
C         31.83789        18.17895        -0.51467
C         33.06002        20.32379        -0.25029
C         31.84458        21.03290        -0.06215
C         33.08768        23.14623        -0.10767
C         31.84099        22.44893        -0.00670
C         33.10688        24.61215        -0.01445
C         31.87906        25.32933         0.35457
C         33.17052        27.39811         0.97042
C         31.90057        26.68783         0.63334
C         33.18616        28.87260         1.02074
C         31.88296        29.58526         1.27070
C         33.14351        31.75059         0.69776
C         31.90208        31.05820         0.92678
C         33.12470        33.14656         0.48901
C         31.90188        33.90063         0.63908
C         33.02192        35.99088        -0.16142
C         31.86571        35.28829         0.48799
C         33.14080        37.45492         0.20212
C         31.83438        38.19750         0.25234
C         33.15443        40.33012         0.44709
C         31.93784        39.65419         0.62906
C         33.16753        41.73797         0.35707
C         31.93630        42.45722         0.38386
C         33.15860        44.57186        -0.00299
C         31.91875        43.86261         0.14001
C         33.12479        45.97615        -0.13702
C         31.89914        46.66448        -0.30099
C         31.85002        48.07887        -0.39843
C         34.28236        21.03901        -0.30538
C         35.58191        23.17776        -0.19390
C         34.31814        22.44973        -0.21096
C         35.66846        24.53502         0.03459
C         34.41709        25.32016         0.13822
C         35.77032        27.34695         1.04439
C         34.43931        26.62889         0.87222
C         35.64721        28.85366         0.83349
C         34.42456        29.55692         0.85274
C         35.59203        31.72691         0.47645
C         34.40459        31.02930         0.69008
C         35.60135        33.13713         0.13697
C         34.34194        33.86706         0.18183
C         35.49306        35.98211        -0.47472
C         34.30790        35.23351        -0.03987
C         35.55155        37.42579        -0.21112
C         34.35196        38.11400         0.15239
C         35.64109        40.28882        -0.02894
C         34.45420        39.56567         0.57220
C         35.60662        41.69403        -0.09760
C         34.41099        42.44459         0.10725
C         34.38330        43.84153        -0.01056
C         36.86673        25.34316        -0.04499
C         38.03972        27.50616        -0.02957
C         36.88298        26.69650         0.23722
C         38.10243        28.85646         0.23767
C         36.97353        29.56157         1.00178
C         38.14189        31.73448         0.20666
C         36.89849        31.05658         0.68568
C         38.02505        33.06198        -0.45085
C         36.76492        33.78995        -0.27467
C         38.06079        35.97124        -0.61931
C         36.78424        35.20749        -0.67747
C         37.99143        37.39095        -0.57885
C         36.78901        38.11531        -0.37843
C         36.78721        39.55030        -0.34461
C         39.31644        29.58512        -0.05124
C         40.59397        31.73136        -0.22324
C         39.38054        30.95603        -0.04246
C         40.58252        33.07991        -0.39766
C         39.33304        33.82824        -0.66716
C         39.27219        35.28724        -0.58349
O         25.41288         8.32623        -3.19885
O         22.74487        16.06479         1.97704
O          9.74200        34.42777        -2.01789
O         20.59967        44.65718        -0.86687
O         17.32052        13.56717         0.88850
O         21.18258        39.56211         2.16349
O         23.64829        45.95135        -1.25001
O         18.17809        45.56209         1.94365
O         20.03045        39.07445        -1.18848
O         28.58606        28.38625         2.69002
O         26.46030        22.07003        -0.98549
O         17.54062        47.89880        -1.79433
O         15.23135        35.44004        -1.99758
O         33.72432        26.63469         2.15580
O         20.03858        18.20469         2.38975
O         28.73126        45.82449        -1.85376
O         21.19638        35.94159         2.31458
O         10.37880        37.53606         1.21817
O         24.24396         6.35972        -4.00684
O         30.05241        38.99410         2.69499
O         35.94558        35.56535        -1.82949
O         25.18741        14.63348        -2.09764
O         17.38622        39.01488        -1.66032
O         22.98938        37.67533        -0.46626
O         13.93581        37.65969        -2.02163
O         29.93732        19.03580        -1.87187
O         18.59645        20.35160         2.82746
O         20.64997        32.78435         3.01996
O         29.83427        25.56042         2.19377
O         26.36534        26.83869         3.04886
O         20.22170        22.85101         3.01645
O         37.75432        31.83457         1.62473
O         27.30979        25.38386        -0.31648
O         17.11545        16.21335         1.58005
O         22.55122        50.01665        -2.35864
O         38.57885        33.19900        -1.78467
O         33.73979        25.34729        -1.16296
O         27.71340        37.85740         3.09400
O         25.04990        11.64074         0.82593
O         16.88111        20.98424        -0.50151
O         25.10143        52.33649        -2.72095
O         20.14064        29.25931         3.29275
O         20.91280        57.19508        -2.56224
O         22.66638        44.52790         2.11930
O         28.84442        29.49687        -0.82911
O         37.32372        29.44580         2.40634
H         37.83112        30.26070         2.63456
O         24.18836        51.37396         0.68268
H         23.93768        50.58148         1.20393
O         19.18852        55.32898        -3.16422
H         19.80721        56.04740        -3.43609
O         16.71080        29.95311         3.31490
H         16.64059        29.09052         3.77855
O         20.61166        54.74396         0.16961
H         21.35189        54.21881         0.54263
O         26.13300        22.68591         2.61051
H         25.66397        23.26519         3.25114
O         19.57988        42.26625        -0.87757
H         20.01481        43.10833        -1.20430
O         14.35531        26.66484         3.28437
H         13.48730        26.22947         3.47596
O         11.55398        44.23270        -1.56599
H         12.20797        43.92999        -2.22904
O         14.22601        47.02591         1.96302
H         14.13318        46.16408         2.42247
O         32.71323        35.97081        -1.62730
H         33.57066        36.00218        -2.10892
O         30.26995        24.99158        -1.38529
H         31.03009        24.72472        -1.94413
O         18.23564        24.59569        -0.23928
H         17.40581        24.16321        -0.53865
O         17.62015        34.51362        -1.91595
H         16.76418        34.30356        -2.37120
O         16.89861        34.45726         1.68458
H         16.83069        33.76262         2.37419
O         29.41030        48.17010        -2.57194
H         28.91323        47.38314        -2.90674
O         31.37102        38.27722        -1.15355
H         31.63733        37.42692        -1.59406
O         13.00739        22.90909         2.65249
H         12.93372        21.93870         2.77529
O         24.75746        34.83095        -0.29084
H         24.73839        35.65042        -0.83060
O         17.49966        18.41060        -1.33482
H         17.41386        19.37668        -1.52113
O         24.07783        18.21987        -1.57157
H         23.93578        19.17622        -1.78756
O         36.18829        27.14411         2.41774
H         35.37337        27.20007         2.96951
O         29.16592        16.64328        -2.55441
H         29.10563        15.68867        -2.77026
O         23.09732        20.69545        -1.00971
H         22.18027        20.64079        -1.35108
O         12.32593        33.52224        -2.27457
H         11.48139        33.89367        -2.63583
O         27.86140        33.39631        -0.59779
H         27.29750        32.62503        -0.88222
O         31.50157        29.42874         2.65905
H         32.21662        29.78576         3.22529
O         12.24350        25.79612        -0.71084
H         12.22901        24.97585        -1.24700
O         26.66939        30.93412        -0.62693
H         27.43441        30.36904        -0.98120
O         27.04465        35.24019         3.43287
H         27.15925        36.17482         3.73594
O         11.68973        26.39428         2.84901
H         11.41271        27.20535         3.32508
O         29.26527        50.90872        -2.54250
H         29.31219        49.96405        -2.84093
O         20.55011        41.91762         2.64278
H         21.26356        41.36982         3.06246
O         13.65186        35.89061         1.23464
H         12.85255        36.30913         1.62123
O         26.28133        15.24174        -2.78971
H         26.02748        16.19756        -2.83201
O         30.61745        19.86731         1.61888
H         30.71251        20.68384         2.15359
O         20.38581         9.63558         0.32627
H         19.48360         9.84167         0.65380
O         18.04483        41.31127         2.35486
H         18.93260        41.37952         2.78938
O         28.31073        40.83696         3.15701
H         28.63748        40.03656         3.63361
O         18.89743        32.54041        -0.79626
H         18.72239        33.24821        -1.46946
O         19.41700        14.66420        -1.83330
H         20.22271        14.38452        -2.31716
O         21.73953        11.81753         1.33553
H         21.50483        10.85783         1.28597
O         23.23862        41.63663         2.81752
H         23.22167        42.56052         3.15761
O         30.51100        53.04427        -1.37511
H         30.46060        52.74140        -2.30853
O         24.42230        20.53542         2.39495
H         25.14715        21.05814         2.81751
O         15.01146        33.01391        -1.97786
H         14.18883        33.18943        -2.49889
O         15.52206        49.70525        -2.71400
H         16.26219        49.08429        -2.90924
O         20.88365        50.80272         0.75237
H         20.06548        50.65243         1.27237
O         21.80275        52.28709        -3.24464
H         22.38634        51.54959        -3.54177
O         23.45170        40.47839        -0.64985
H         23.40498        39.57975        -1.05588
O         28.37036        50.41072         0.98885
H         27.57530        50.06084         1.44356
O         34.72793        39.51512         2.01560
H         34.82184        40.43914         2.33057
O         31.22346        28.93212        -0.91391
H         30.38772        29.12161        -1.43835
O         22.08625        33.92151        -0.15552
H         23.00787        34.13505        -0.45564
O         24.51281        34.32984         3.32653
H         24.81316        33.59015         3.89371
H          4.93513        31.19468        -0.18117
H          4.99505        33.62376        -0.63735
H          7.34805        26.93230         0.56961
H          6.13249        29.06603         0.28319
H          6.27540        35.73267        -0.66341
H          7.49621        37.81499        -0.25376
H          9.86598        22.71351         0.34463
H          8.59996        24.79299         0.73796
H          8.79318        39.99912        -0.35111
H          9.95756        42.10219        -0.30075
H         12.39880        18.60198        -0.41668
H         11.17823        20.70298        -0.22613
H         11.21570        44.15947         0.45686
H         12.32361        46.44499        -0.12184
H         14.75854        14.31620        -1.14495
H         13.57033        16.49962        -0.83003
H         13.50469        48.62330        -0.22432
H         14.72323        50.65849        -1.05825
H         17.31617        10.24020        -2.40219
H         16.08876        12.23814        -1.81623
H         15.90274        52.75338        -1.21886
H         17.04915        54.86509        -1.50738
H         19.76565         5.98679        -3.23872
H         18.46842         8.11932        -2.82258
H         18.56033        56.74346        -0.18307
H         19.82807        59.33792        -0.23928
H         23.06628         2.68895        -3.51879
H         21.12999         3.99596        -3.85090
H         23.11507        62.52845        -0.59429
H         20.99019        61.26652        -0.47172
H         25.13607         3.44900        -2.54712
H         26.55986         5.49072        -1.65876
H         26.46582        59.30478        -1.35134
H         25.25532        61.33070        -1.06886
H         27.83027         7.74122        -0.93786
H         29.01556         9.83384        -0.92531
H         29.03150        55.02146        -1.12094
H         27.78029        57.15703        -1.24001
H         30.26354        12.00165        -0.77266
H         31.45117        14.12055        -0.47057
H         31.55328        50.74594        -0.46493
H         29.63754        52.47237         0.40967
H         32.67801        16.18016        -0.44161
H         33.98428        18.33458        -0.36337
H         34.06647        46.54349        -0.16160
H         32.77936        48.64805        -0.24472
H         35.22429        20.48128        -0.41441
H         36.50544        22.59385        -0.32877
H         36.51565        42.23351        -0.40653
H         35.32388        44.38768        -0.17643
H         37.77769        24.87557        -0.45282
H         38.90632        27.02051        -0.50846
H         38.93301        37.95655        -0.64640
H         37.70865        40.08230        -0.62812
H         40.21332        29.00415        -0.31963
H         41.55524        31.20064        -0.14992
H         41.53160        33.63550        -0.43670
H         40.20880        35.84404        -0.42886
