         204
 CSIRO Nanostructure Databank - Neutral Graphene Oxide Data Set
C        -11.13551         0.66246        -0.04434
C         -9.91322         1.43553         0.14442
C         -8.68225         0.72807         0.30939
C         -7.47652         1.45725         0.23558
C         -6.21842         0.69889         0.12142
C         -4.92665         1.45378         0.06337
C         -3.67827         0.73267         0.33455
C         -2.48172         1.46837         0.43347
C         -1.21864         0.78156         0.42695
C         -0.00810         1.46050         0.55392
C          1.26195         0.74193         0.65900
C          2.44275         1.44367         0.93436
C          3.69126         0.70987         1.18960
C          4.99498         1.46907         1.13458
C          6.22111         0.68471         0.85767
C          7.54511         1.42822         0.94515
C          8.69527         0.67895         0.32417
C          9.86395         1.42122        -0.09678
C         11.04440         0.68083        -0.46050
C         -9.90310         2.83036         0.03475
C         -8.69379         3.57333         0.05944
C         -7.45518         2.86431         0.11986
C         -6.20581         3.59464         0.13214
C         -4.96438         2.91551         0.18030
C         -3.75043         3.61821         0.34086
C         -2.49553         2.90039         0.43804
C         -1.25816         3.59647         0.48706
C         -0.00780         2.90004         0.61042
C          1.20133         3.61912         0.71389
C          2.45068         2.93045         1.20490
C          3.74909         3.62173         0.79223
C          4.93828         2.93041         0.85026
C          6.24029         3.62753         0.77842
C          7.46805         2.87134         0.50169
C          8.61385         3.54348         0.07410
C          9.82799         2.80590        -0.16797
C         -8.66897         4.99909        -0.04820
C         -7.47892         5.71668        -0.00501
C         -6.22038         5.01885         0.15021
C         -5.00336         5.73636         0.28575
C         -3.78968         5.04031         0.41249
C         -2.50983         5.76421         0.53386
C         -1.23942         5.01728         0.40875
C         -0.02041         5.68903         0.27394
C          1.21941         5.00976         0.45044
C          2.46727         5.72359         0.29181
C          3.71028         5.04749         0.46062
C          4.91513         5.75184         0.20484
C          6.21799         5.11428         0.44959
C          7.43228         5.70968        -0.14307
C          8.58381         4.94848        -0.24110
C         -7.44835         7.14927        -0.21988
C         -6.29142         7.87566        -0.12327
C         -5.04726         7.24787         0.45551
C         -3.78622         7.92967        -0.01933
C         -2.52655         7.24701         0.24979
C         -1.29666         7.84626        -0.33692
C         -0.01704         7.07558        -0.23312
C          1.24388         7.81542        -0.29714
C          2.45598         7.11291        -0.09261
C          3.68556         7.79691        -0.34918
C          4.91153         7.09827        -0.23967
C          6.15538         7.76490        -0.57890
C          7.35683         7.06673        -0.58278
C         -6.22233         9.26989        -0.50643
C         -5.03869         9.93276        -0.63928
C         -3.76160         9.26276        -0.43758
C         -2.52437         9.96191        -0.61532
C         -1.27599         9.31328        -0.53706
C         -0.02361         9.91672        -0.74181
C          1.21036         9.20104        -0.63120
C          2.45369         9.86386        -0.84173
C          3.66405         9.17948        -0.74162
C          4.92012         9.83041        -1.03188
C          6.10100         9.15194        -0.97033
C        -11.15731        -0.68225         0.05340
C         -9.96702        -1.45748         0.55310
C         -8.66200        -0.72057         0.37438
C         -7.47247        -1.43714         0.39007
C         -6.19171        -0.69804         0.68897
C         -4.92729        -1.43354         0.33976
C         -3.70409        -0.70625         0.31309
C         -2.48443        -1.41557         0.19946
C         -1.23672        -0.65295         0.10715
C          0.07587        -1.41844         0.24835
C          1.25415        -0.68255         0.67796
C          2.44369        -1.43566         1.06093
C          3.74291        -0.74923         0.99676
C          4.93188        -1.43401         0.83333
C          6.18885        -0.68518         0.78784
C          7.48480        -1.48318         0.77198
C          8.67776        -0.69293         0.26978
C          9.85017        -1.42599        -0.15383
C         11.04098        -0.68461        -0.47017
C         -9.89432        -2.88615         0.09366
C         -8.69027        -3.57557         0.04507
C         -7.43332        -2.86374         0.22670
C         -6.20480        -3.55272         0.13479
C         -4.94103        -2.83106         0.18954
C         -3.70867        -3.53983         0.05515
C         -2.47446        -2.82697         0.10304
C         -1.22879        -3.55143         0.10903
C          0.00416        -2.88819         0.33953
C          1.19026        -3.62044         0.47675
C          2.43312        -2.96208         0.90533
C          3.70974        -3.62993         0.64105
C          4.92825        -2.89231         0.62890
C          6.12263        -3.57002         0.30598
C          7.34122        -2.76175        -0.06115
C          8.62742        -3.56098        -0.08542
C          9.83399        -2.82093        -0.22251
C         -8.64255        -4.98938        -0.17429
C         -7.43294        -5.68724        -0.20337
C         -6.18320        -4.97022        -0.07421
C         -4.95859        -5.67433        -0.16709
C         -3.70441        -4.96714        -0.10101
C         -2.48682        -5.66749        -0.20086
C         -1.23474        -4.96659        -0.06272
C         -0.01119        -5.66835        -0.10873
C          1.20303        -5.01044         0.18358
C          2.44830        -5.72602         0.19494
C          3.68093        -5.02172         0.35288
C          4.92590        -5.72371         0.20385
C          6.14023        -4.97988         0.14407
C          7.37778        -5.68615        -0.06672
C          8.60316        -4.94221        -0.13717
C         -7.40035        -7.10771        -0.37195
C         -6.20164        -7.80770        -0.42039
C         -4.94900        -7.09703        -0.32871
C         -3.72901        -7.80603        -0.40462
C         -2.47728        -7.10445        -0.35372
C         -1.27095        -7.81021        -0.45757
C          0.02483        -7.06990        -0.64318
C          1.24928        -7.84290        -0.22755
C          2.42216        -7.15566         0.06358
C          3.68759        -7.88530         0.25747
C          4.94599        -7.13708         0.10907
C          6.16252        -7.82297        -0.11889
C          7.36369        -7.08297        -0.20054
C         -6.16735        -9.24359        -0.57428
C         -4.98825        -9.92385        -0.63940
C         -3.71939        -9.23644        -0.56558
C         -2.51034        -9.92294        -0.65152
C         -1.25766        -9.23589        -0.59754
C         -0.02823        -9.92164        -0.67582
C          1.23223        -9.27451        -0.44733
C          2.42923        -9.99353        -0.48389
C          3.69470        -9.39615        -0.06566
C          4.99209        -9.96961        -0.46326
C          6.14016        -9.24682        -0.40565
O        -10.16717        -1.54563         2.02479
H         -9.37035        -1.98082         2.39683
O          0.16671        -6.91970        -2.11900
H         -0.61660        -6.41853        -2.43303
O          4.38622         1.14800         2.44691
O          7.83830         1.47081         2.39085
H          7.19946         2.09222         2.80395
O          2.40956         3.07233         2.66898
H          3.14323         2.50811         3.01886
O         -5.10063         7.48521         1.90487
H         -4.21283         7.22591         2.25574
O          6.39417         4.65229         1.83526
O         -6.16386        -0.51050         2.14842
H         -6.11436        -1.39742         2.56326
O          7.11345        -2.30192        -1.43158
H          7.06978        -3.09218        -2.00982
O          2.30610        -2.32647         2.22860
O          7.75144        -1.86939         2.14004
H          7.85458        -1.04550         2.66444
O         -5.58425         0.89432        -1.16979
O          3.67981        -8.88121         1.31949
O         -0.79980         7.12898        -1.51581
O         -0.42490        -0.96651        -1.07698
O         -2.42811         6.75485         1.64744
H         11.94606        -1.24112        -0.75505
H         11.95004         1.23901        -0.73972
H         10.72405         3.35814        -0.48768
H          9.49895         5.40764        -0.64434
H          8.27514         7.56532        -0.92776
H          7.04535         9.66022        -1.21480
H          4.90374        10.88991        -1.32683
H          2.45394        10.92888        -1.11838
H          0.02078        10.98966        -0.98317
H         -2.55813        11.04044        -0.83055
H         -5.02968        10.98786        -0.94961
H         -7.16593         9.78601        -0.74169
H         -8.37631         7.64124        -0.55218
H         -9.62146         5.53842        -0.16292
H        -10.85555         3.36721        -0.09165
H        -12.04480         1.21023        -0.33659
H        -12.09112        -1.23628        -0.12637
H        -10.83716        -3.44406        -0.01717
H         -9.58803        -5.53894        -0.29550
H         -8.35279        -7.65193        -0.46014
H         -7.12342        -9.78389        -0.63850
H         -4.98442       -11.01755        -0.75705
H         -2.51431       -11.01720        -0.76866
H         -0.03624       -11.01215        -0.82398
H          2.42842       -11.03063        -0.85299
H          5.01339       -11.01113        -0.81849
H          7.09394        -9.72214        -0.68062
H          8.31013        -7.61447        -0.38116
H          9.54963        -5.49732        -0.22915
H         10.76996        -3.36137        -0.43354
