         661
 CSIRO Nanostructure Databank - Neutral Graphene Oxide Data Set
C          6.13392        31.86442         2.01874
C          6.12761        33.19605         1.81727
C          8.30692        27.45204         1.21671
C          8.43473        28.88898         1.48885
C          7.31397        29.62666         1.76369
C          8.43575        31.71872         1.06414
C          7.43958        31.10275         2.04788
C          8.54640        33.21076         1.26098
C          7.36234        33.93805         1.54949
C          8.58694        36.04730         1.29656
C          7.38926        35.33508         1.58081
C          8.64926        37.46190         1.31918
C         10.99633        23.21636         0.85598
C         10.56856        24.39428         1.46926
C          9.41711        25.16835         1.16302
C         11.23672        27.54618         1.72646
C          9.24604        26.51091         1.60762
C         10.96753        28.83015         1.07280
C          9.72423        29.60440         1.30868
C         10.97818        31.71466         0.80636
C          9.75449        30.96973         1.09314
C         10.97481        33.14314         0.77365
C          9.75907        33.88519         1.01293
C         10.98321        36.01341         0.69935
C          9.77730        35.31012         1.00945
C         10.97159        37.42167         0.54387
C          9.81654        38.15652         0.93265
C         10.96925        40.31183         0.55800
C          9.85405        39.59340         0.98178
C         11.03119        41.73351         0.62920
C         13.52986        19.04526         0.55145
C         13.53633        20.44726         0.69796
C         12.33103        21.19592         0.71687
C         13.55241        23.23623         1.29461
C         12.28828        22.56713         1.00917
C         13.60338        24.66910         1.53454
C         12.52132        25.45147         1.89911
C         13.56000        27.52430         0.96104
C         12.43050        26.85947         1.57590
C         13.51578        28.89799         0.68460
C         12.22212        29.58238         0.60431
C         13.44715        31.74575         0.49201
C         12.20616        31.04610         0.61571
C         13.45394        33.15803         0.50085
C         12.20266        33.85896         0.60671
C         13.46820        36.00605         0.67230
C         12.19801        35.27265         0.58924
C         13.47066        37.50049         0.31923
C         12.12756        38.08763        -0.18079
C         13.00787        40.34704        -0.73885
C         12.07855        39.60909        -0.07875
C         13.19059        41.83554        -0.71939
C         12.12638        42.47747         0.15593
C         13.42183        44.57364         0.05814
C         12.22019        43.85613         0.35407
C         13.39037        45.94371        -0.07946
C         15.86270        14.70538         0.16073
C         15.91792        16.12249         0.31281
C         14.72201        16.89317         0.46367
C         15.98921        19.00805         0.63190
C         14.73536        18.30272         0.55879
C         16.02122        20.39595         0.72438
C         14.78875        21.14112         0.83948
C         16.10192        23.17912         1.50750
C         14.77422        22.52514         1.12574
C         16.12186        24.67433         1.12562
C         14.84429        25.41175         1.21839
C         15.89883        27.46843         0.29011
C         14.75911        26.80632         0.73108
C         15.91774        28.88766         0.20254
C         14.70825        29.60933         0.40566
C         15.91923        31.72958         0.18740
C         14.69268        31.03534         0.33852
C         15.93362        33.16185         0.25857
C         14.70616        33.86805         0.42408
C         15.96630        35.98133         0.58732
C         14.73618        35.27804         0.55319
C         15.95126        37.42916         0.50102
C         14.80830        38.05436         0.01860
C         15.98272        40.17900        -0.50801
C         14.96225        39.30965        -0.68869
C         15.86038        41.63294        -0.95646
C         14.62882        42.30903        -0.28681
C         15.93441        44.51085        -0.43721
C         14.69656        43.79271        -0.03504
C         15.92173        45.98721        -0.37159
C         14.60413        46.74677        -0.22154
C         15.80560        48.87242        -0.60739
C         14.59270        48.15061        -0.62191
C         15.83866        50.31928        -0.51161
C         18.17662        10.30105         0.31205
C         18.20488        11.71462         0.21444
C         17.02588        12.50976         0.25178
C         18.31215        14.60420         0.15152
C         17.06326        13.93254         0.16698
C         18.38589        16.06932        -0.19116
C         17.16325        16.78842         0.30169
C         18.36077        18.96099        -0.09373
C         17.28626        18.22275         0.72127
C         18.53638        20.35567         0.49942
C         17.30410        21.11509         0.70442
C         18.61153        23.20491         0.87288
C         17.33307        22.45343         1.00714
C         18.49772        24.54960         0.22002
C         17.17923        25.24293         0.21631
C         18.35122        27.46617        -0.22361
C         17.05049        26.69834        -0.28797
C         18.36493        28.83167        -0.22349
C         17.13901        29.59346        -0.02939
C         18.38084        31.73533        -0.17706
C         17.14407        31.00217         0.00763
C         18.40134        33.14804        -0.05043
C         17.17087        33.87780         0.22693
C         18.50739        35.95388         0.73076
C         17.18867        35.27232         0.41661
C         18.52372        37.49878         0.52330
C         17.20525        38.22735         0.58432
C         18.41100        40.35529        -0.11151
C         17.11857        39.74439         0.38134
C         18.32403        41.79525        -0.25328
C         17.13946        42.39792        -0.61094
C         18.31147        44.52764        -1.38194
C         17.08677        43.84321        -0.76085
C         18.34532        46.00610        -0.98647
C         17.03126        46.74093        -1.08500
C         18.25502        48.86896        -0.23677
C         17.02912        48.17658        -0.61699
C         18.27624        50.35024        -0.19607
C         17.00412        51.02318        -0.32965
C         18.24401        53.20647         0.09089
C         16.92610        52.52711        -0.20395
C         18.22510        54.56998         0.30567
C         20.56992         6.01345         1.01643
C         20.57645         7.37720         0.64512
C         19.37499         8.13096         0.51477
C         20.61462        10.21346         0.06880
C         19.37483         9.54262         0.29789
C         20.66876        11.62363        -0.02991
C         19.47482        12.36658         0.11624
C         20.87801        14.51620        -0.06312
C         19.53866        13.82223         0.23600
C         20.89959        15.96750        -0.33829
C         19.71948        16.76544         0.21544
C         20.75509        18.76986        -0.86962
C         19.66679        18.19996        -0.28324
C         20.79014        20.16695        -1.42517
C         19.74604        20.97121         0.74925
C         20.86519        23.01796        -0.42813
C         19.86666        22.44832         0.59560
C         20.83099        24.50356        -0.68461
C         19.78637        25.33754         0.05708
C         20.76983        27.39486        -1.08412
C         19.55702        26.68169        -0.60693
C         20.79902        28.86983        -1.00316
C         19.68735        29.56082        -0.23792
C         20.72800        31.75031        -0.85647
C         19.57790        31.04264        -0.50098
C         20.76389        33.16426        -0.72594
C         19.62851        33.83434        -0.21746
C         20.90952        36.04155        -0.39179
C         19.73583        35.26291         0.14157
C         20.77033        37.50955        -0.57543
C         19.67019        38.20410        -0.13503
C         20.76385        40.39115        -0.81210
C         19.58128        39.65558        -0.36138
C         20.69221        41.89651        -0.88404
C         19.60049        42.59973        -0.03637
C         20.83631        44.63053        -1.02046
C         19.61370        43.75125        -1.07173
C         20.77684        46.01255        -0.96043
C         19.51580        46.68413        -0.78217
C         20.80109        48.87758        -0.32844
C         19.54264        48.09259        -0.28340
C         20.75710        50.27597         0.28482
C         19.46763        51.03966         0.00174
C         20.69621        53.18947         0.35258
C         19.47953        52.47923         0.13895
C         20.67114        54.58830         0.60815
C         19.42095        55.29806         0.59408
C         20.59363        57.41474         1.07304
C         19.39949        56.68630         0.78401
C         20.59127        58.80899         1.06260
C         22.98916         3.24544         1.70509
C         21.79107         3.92002         1.54576
C         23.03135         5.96605         0.99137
C         21.77876         5.29892         1.18132
C         23.04762         7.34332         0.61387
C         21.84040         8.02000         0.43375
C         23.08287        10.19358         0.30165
C         21.86379         9.40069        -0.16127
C         23.12117        11.46058        -0.54259
C         21.90682        12.30478        -0.40738
C         23.16127        14.35742        -1.13375
C         21.97935        13.67515        -0.54717
C         23.25870        15.84457        -1.14588
C         22.02161        16.56719        -0.84164
C         23.31125        18.74522        -1.21496
C         22.05601        18.04698        -0.84444
C         23.29861        20.20384        -1.47123
C         22.06593        20.94547        -1.24860
C         23.41317        23.03543        -0.90846
C         22.09521        22.26810        -0.86689
C         23.26405        24.50681        -1.30399
C         22.05631        25.22364        -1.13280
C         23.18099        27.38553        -1.57922
C         22.04259        26.65237        -1.24158
C         23.18643        28.83043        -1.58416
C         21.94419        29.54781        -1.30131
C         23.18463        31.77046        -1.37030
C         21.88143        31.04135        -1.53090
C         23.17772        33.14318        -1.37567
C         21.97119        33.89794        -1.07824
C         23.25232        36.00430        -1.27551
C         22.02069        35.29073        -1.03880
C         23.21858        37.49040        -1.33842
C         21.94131        38.24073        -1.10636
C         23.26806        40.38101        -0.98271
C         21.97097        39.71638        -0.94433
C         23.24973        41.78929        -0.82471
C         22.04802        42.54209        -0.87640
C         23.36564        44.69124        -1.21228
C         22.08074        43.92879        -1.02040
C         23.21342        46.09007        -0.55479
C         22.01874        46.84123        -1.19029
C         23.23169        49.02713        -0.78841
C         21.95833        48.27135        -0.68920
C         23.19639        50.48899        -0.50884
C         21.97412        51.11608        -0.03507
C         23.21396        53.19102         0.41468
C         21.96992        52.48509         0.21565
C         23.19415        54.69504         0.53475
C         21.87102        55.31505         0.91143
C         23.04078        57.40236         1.65540
C         21.82381        56.66671         1.23508
C         23.06380        58.90080         1.61123
C         21.77530        59.68847         1.36685
C         23.19043        61.30698         0.09733
C         21.95810        60.78441         0.35166
C         24.22004         3.90196         1.51518
C         25.51005         5.95540         0.96941
C         24.25608         5.25728         1.16140
C         25.56893         7.27975         0.63216
C         24.33441         8.03239         0.45355
C         25.62755        10.15131         0.30237
C         24.36300         9.38837         0.23265
C         25.65024        11.57262        -0.19777
C         24.42486        12.12016        -0.84137
C         25.75183        14.27152        -1.34116
C         24.43386        13.55393        -1.26719
C         25.73292        15.75001        -1.60962
C         24.43951        16.48672        -1.46660
C         25.76994        18.69908        -1.59038
C         24.45569        17.96753        -1.83485
C         25.74848        20.15267        -1.66658
C         24.49702        20.86064        -1.67957
C         25.74574        23.06602        -2.04451
C         24.36393        22.35540        -1.95088
C         25.69240        24.51950        -1.61675
C         24.43349        25.19899        -1.65138
C         25.67774        27.38792        -1.60353
C         24.42403        26.65971        -2.01437
C         25.66426        28.80817        -1.60541
C         24.39894        29.52733        -1.63188
C         25.66002        31.67669        -1.76545
C         24.46033        30.98371        -1.20643
C         25.66328        33.11033        -2.04534
C         24.39920        33.89621        -1.76857
C         25.68532        36.10546        -1.77665
C         24.44656        35.35834        -1.55007
C         25.72513        37.46737        -1.61352
C         24.52780        38.17286        -1.00408
C         25.76597        40.32859        -1.17742
C         24.50034        39.67200        -1.14336
C         25.80453        41.73720        -0.74394
C         24.50582        42.49919        -0.56260
C         25.76357        44.63557        -0.59796
C         24.56496        43.95994        -0.68451
C         25.79482        46.12597        -0.80162
C         24.50300        46.83752        -0.56078
C         25.77026        49.00214        -0.19067
C         24.55420        48.29167        -0.70328
C         25.74218        50.38615         0.08514
C         24.55958        51.20859        -0.16170
C         25.67910        53.20865         0.82293
C         24.44058        52.54187         0.43781
C         25.67878        54.58351         1.13040
C         24.37346        55.22869         1.32457
C         25.62377        57.41158         1.71258
C         24.34487        56.66524         1.72710
C         25.58460        58.81582         1.53876
C         24.38188        59.53375         1.31996
C         24.39144        60.75062         0.63668
C         26.93119         7.93181         0.44794
C         28.07394        10.17726         0.34187
C         26.92126         9.44905         0.38056
C         28.09757        11.61663         0.10639
C         26.93640        12.27111        -0.37350
C         28.06528        14.43052        -0.33605
C         26.95482        13.64273        -0.71385
C         27.92011        15.94847        -0.28095
C         27.07395        16.49884        -1.45678
C         28.23782        18.68708        -1.28203
C         26.93102        18.00454        -1.35648
C         28.27071        20.19559        -1.45928
C         26.96825        20.90452        -1.58977
C         28.16698        23.08286        -1.37816
C         26.93723        22.29555        -1.53240
C         28.02040        24.46947        -0.78556
C         26.85371        25.23125        -1.35287
C         28.05956        27.37574        -1.00945
C         26.85704        26.67584        -1.30714
C         28.07419        28.80022        -1.11070
C         26.88150        29.50470        -1.45105
C         28.02280        31.75327        -1.16189
C         26.95251        30.95185        -1.88155
C         28.17338        33.18723        -1.50274
C         26.98181        33.85019        -2.07487
C         28.22112        36.05081        -1.65887
C         26.96138        35.36725        -2.04126
C         28.25559        37.50720        -1.90371
C         26.93003        38.27205        -2.06578
C         28.25566        40.35716        -1.39557
C         26.98852        39.67357        -1.46621
C         28.27229        41.84601        -1.39318
C         27.00121        42.55194        -1.06938
C         28.24794        44.63822        -0.49036
C         27.02107        43.95847        -0.63009
C         28.21457        46.01986         0.05327
C         26.90214        46.77107        -0.00534
C         28.11521        48.80438         0.75266
C         26.89184        48.22435         0.16450
C         28.09167        50.25419         1.12538
C         26.74653        50.98378         1.06699
C         28.10758        53.15503         1.17803
C         26.87717        52.47975         0.93607
C         28.10114        54.55383         1.37332
C         26.88345        55.27802         1.42793
C         26.82925        56.69517         1.66043
C         29.24633        12.39548         0.33113
C         30.34792        14.58102         0.79321
C         29.19654        13.79170         0.21453
C         30.38455        16.03153         0.37679
C         29.25441        16.67529        -0.18155
C         30.51469        18.78431        -0.24222
C         29.35360        18.03091        -0.55798
C         30.54705        20.22357        -0.39782
C         29.44635        20.90846        -0.93356
C         30.55895        23.09900        -0.38384
C         29.47000        22.35762        -1.02009
C         30.49155        24.54964        -0.32446
C         29.30571        25.24163        -0.67901
C         30.43803        27.38161        -0.31030
C         29.27084        26.65934        -0.66618
C         30.44958        28.82397        -0.38822
C         29.28106        29.51069        -0.82953
C         30.50596        31.73047        -0.72700
C         29.23719        30.97627        -0.72577
C         30.51185        33.20308        -0.69236
C         29.32659        33.89586        -1.17890
C         30.61961        36.05707        -1.03605
C         29.37310        35.34981        -1.33093
C         30.67059        37.42876        -1.07465
C         29.53929        38.23487        -1.58750
C         30.70684        40.42437        -1.01919
C         29.49493        39.70504        -1.37419
C         30.70820        41.77859        -0.77016
C         29.58647        42.62213        -1.31199
C         30.70492        44.67230        -0.34709
C         29.48259        43.98390        -0.63755
C         30.72089        46.19006        -0.40428
C         29.44741        46.81878         0.10264
C         30.64271        48.90639         0.63227
C         29.41192        48.13934         0.45576
C         30.58298        50.28504         0.91612
C         29.36854        51.01568         1.05882
C         29.33868        52.40177         1.16365
C         31.56694        16.73793         0.58679
C         32.80237        18.87523         0.69196
C         31.64504        18.12986         0.33587
C         32.85070        20.27358         0.56809
C         31.70191        20.96748         0.03198
C         32.96698        23.17003         0.26408
C         31.69058        22.39011         0.01918
C         32.66734        24.51185         0.92640
C         31.60093        25.27286         0.17358
C         32.72651        27.39653         0.68341
C         31.59385        26.68530         0.17395
C         32.61036        28.87665         0.92914
C         31.57473        29.53584         0.06678
C         32.81510        31.74511         0.33013
C         31.72911        30.95206        -0.24814
C         32.83822        33.12458         0.12860
C         31.71938        33.84226        -0.42046
C         33.01481        36.01657        -0.12298
C         31.91750        35.27378        -0.87369
C         33.06476        37.43569        -0.20767
C         31.94769        38.14831        -0.85365
C         33.14987        40.33221        -0.27062
C         31.97913        39.65438        -0.88034
C         33.19563        41.83509        -0.42321
C         31.85042        42.45330        -0.03347
C         33.11578        44.65262         0.17294
C         31.88304        43.96422        -0.16018
C         33.09897        46.07289         0.36748
C         31.93722        46.82971         0.23060
C         31.87178        48.19995         0.57413
C         33.97428        21.00945         1.05503
C         35.09453        23.14595         1.56375
C         34.03360        22.41203         1.02290
C         35.11044        24.58841         1.58409
C         33.91983        25.30281         1.18850
C         35.02465        27.48340         1.65423
C         33.87229        26.70115         1.14364
C         35.20684        28.86999         1.07453
C         33.91262        29.63191         0.94702
C         34.97496        31.72240         1.69293
C         33.92567        31.00142         0.88355
C         35.04075        33.21944         1.39832
C         34.17192        33.82058         0.29744
C         35.29867        36.02999         0.77718
C         34.10528        35.32662         0.40139
C         35.36331        37.44510         0.63602
C         34.19480        38.15506         0.21594
C         35.35735        40.27280         0.94605
C         34.20117        39.61297         0.21627
C         35.37633        41.76947         0.82541
C         34.33272        42.49628         0.32584
C         34.28259        43.92472         0.43434
C         36.26848        25.28662         1.93657
C         37.54607        27.51030         2.07041
C         36.28948        26.74382         2.04345
C         37.56065        28.89855         2.00393
C         36.35137        29.64297         1.68781
C         37.51064        31.77276         2.07015
C         36.31802        31.01770         1.75173
C         37.52445        33.17156         2.04163
C         36.31414        33.93894         1.68886
C         37.66574        36.00928         1.47673
C         36.45522        35.33543         1.23737
C         37.73230        37.41436         1.22525
C         36.60922        38.12203         0.84309
C         36.68351        39.60242         0.54402
C         38.74872        29.65495         2.28196
C         39.93616        31.79785         2.59387
C         38.73802        31.04185         2.31303
C         39.94585        33.15939         2.53887
C         38.75621        33.90197         2.19231
C         38.80200        35.27601         1.96031
O         11.34039        28.89586        -0.35193
O         35.29630        27.30610         3.05346
O         23.59068        13.78152        -2.41743
O         22.42598        37.91232        -2.48332
O         29.16455        22.89966        -2.39068
O         14.82021        42.77553         1.04859
O         24.77033        33.52111        -3.15645
O         23.77288        11.26094        -1.83059
O         19.69045        23.14482         1.89603
O         23.36871        55.12841        -0.81145
O         22.92846        58.21420         2.89509
O         15.89419        25.47663         2.32864
O         17.58293        24.40139        -0.90915
O         32.34240        38.88427        -2.08141
O         25.27415        41.96371         0.59193
O         23.71114        22.51361        -3.18402
O         19.85951        20.64861        -2.06245
O         23.99344        48.75280        -2.02214
O         20.49237        14.22399         1.32844
O         20.87259        35.58751         1.02625
O         25.47320        11.29377         1.25381
O         19.76805        26.79341        -2.04180
O         27.42492        42.38211        -2.47752
O         35.13180        33.94341         2.65358
O         13.91399        39.65215        -1.56286
O         27.14959        34.62846        -3.29301
O         28.61063        19.29325        -2.56578
O         28.05796        49.23438         2.18215
O         25.88729        14.79097        -2.71602
O         20.20260        23.57564        -1.61778
O         23.02171        18.49499         0.20553
O         13.08960        42.32590        -2.04604
O         28.22454        31.45890         0.24338
O         19.97185        42.63924        -2.07695
O         29.19535        37.85136        -2.98165
O         11.40969        24.86989         2.50248
O         31.47379        31.21631        -1.68352
O         24.20651        55.59143         2.73186
O         15.56945        46.50417         0.91734
O         10.23603        27.00530         2.51446
O         18.04123        38.06492         1.78450
O         13.42515        37.06131         1.70225
O         27.32775        46.10195         1.22705
O         23.96669        51.20630        -1.49603
O         18.85619        48.23712         1.01181
O         29.97172        42.93550        -2.68551
H         29.13145        43.06647        -3.18456
O         24.41720        26.70211        -3.49479
H         23.74890        26.05355        -3.80609
O         23.64692        44.84236        -2.63241
H         22.93221        45.42005        -3.01245
O         16.35422        53.08811        -1.40123
H         16.97254        52.92347        -2.14250
O         27.16615        16.24484         0.92780
H         27.69073        15.95418         1.70284
O         32.11321        28.99972         2.33465
H         32.71306        29.60766         2.82293
O         20.86666        20.29891         1.11433
H         21.58866        20.91630         1.34681
O         18.60651        35.72209         2.15920
H         19.53275        35.92997         2.41902
O         34.89431        33.54304        -0.94673
H         34.32628        33.86700        -1.68374
O         19.88034        42.87431         1.32023
H         19.05804        42.80355         1.84625
O         11.99019        37.70062        -1.57309
H         12.54782        38.31643        -2.10314
O         22.81966        45.87242         0.83424
H         23.55938        45.42766         1.30052
O         26.07838        50.79348         2.35509
H         26.50768        50.00625         2.77452
O         22.87123        10.55488         1.68280
H         23.71517        10.94726         2.01139
O         33.37499        42.11383        -1.83113
H         34.16406        41.62801        -2.14814
O         16.85487        40.32622         1.68833
H         17.35855        39.78873         2.34203
O          7.87772        31.52597        -0.26854
H          8.53168        31.84983        -0.92261
O         34.43967        31.57380         3.04869
H         34.67463        32.40694         3.52853
O         27.38518        30.95452        -3.28185
H         26.63832        30.65080        -3.84017
O         24.65610        37.94004         0.45049
H         25.28397        38.60139         0.81231
O         27.53927         7.41572        -0.75353
H         26.93960         7.59989        -1.50558
O         15.65225        41.72999        -2.36996
H         14.66960        41.90281        -2.52770
O         21.58452        31.13152        -2.97495
H         21.79907        32.04077        -3.27546
O         27.62087        24.18976         0.61688
H         27.64684        25.03818         1.10976
O         20.17493        29.49236         1.15807
H         19.45725        29.81990         1.74158
O         31.66719        42.14879         1.38536
H         30.91075        42.67752         1.71638
O         19.84611        16.79882         1.64428
H         20.07437        15.88475         1.94462
O         16.67358        46.78538        -2.50310
H         17.06062        45.98614        -2.94029
O         32.46235        35.13083        -2.23537
H         32.37231        35.99794        -2.68804
O         26.11429        46.35103        -2.21204
H         25.40092        45.89884        -2.72769
O          8.01111        31.25978         3.37908
H          7.40444        30.83726         4.02173
O         35.60875        28.60720        -0.31625
H         35.69424        29.46781        -0.77930
O         36.92734        39.79536        -0.85698
H         36.29131        39.24460        -1.35891
O         18.10954        44.47624        -2.81847
H         18.38059        43.57846        -3.11914
O         23.97123        22.99380         0.42692
H         24.76272        23.57410         0.45476
O         17.69786        18.25102         2.11573
H         17.07403        17.70266         2.63473
O         16.16742        23.07739         2.95473
H         15.94269        23.97112         3.31377
O         32.08494        24.20094         2.23251
H         32.02526        25.03654         2.74261
O         18.38358        16.15747        -1.66527
H         17.47572        15.95734        -1.97841
O         24.65365        30.92675         0.27450
H         23.85620        30.50287         0.65982
O         20.78552        50.05573         1.72990
H         20.05818        49.41401         1.92730
O         16.72477        26.62760        -1.70424
H         17.36690        26.00543        -2.11942
O         33.51118        23.47213        -1.04879
H         33.68640        22.62619        -1.51122
O         22.16327        46.94290        -2.63420
H         22.87534        47.61961        -2.79717
O         21.43373        60.34693         2.63004
H         21.68259        59.70938         3.33967
O         26.05352        23.13978        -3.45845
H         25.17690        22.91033        -3.90156
O         20.27936        25.67201         1.37234
H         20.26146        24.84623         1.92142
O         24.20461        18.01268        -3.26518
H         24.95747        17.58856        -3.72843
O         35.19461        39.97907         2.36394
H         34.37041        40.41415         2.66798
O         21.99129         9.21826        -1.60189
H         21.21289         8.71085        -1.91298
O         30.77936        46.52144        -1.83275
H         31.45656        45.94431        -2.24582
O         17.75948        19.13604        -1.39652
H         18.36310        19.71729        -1.93083
O         26.72550        38.47700        -3.48766
H         27.61994        38.53419        -3.89903
O         27.86621        16.29415        -2.64340
H         27.42467        15.58613        -3.17352
O         31.59569        13.94100         0.50221
H         31.74860        13.99411        -0.46342
H          5.19855        31.32890         2.24528
H          5.18726        33.76625         1.86550
H          7.39980        27.11961         0.68961
H          6.33782        29.12943         1.87350
H          6.47212        35.89543         1.81555
H          7.75439        38.03490         1.60440
H         10.28085        22.70058         0.19624
H          8.71220        24.77904         0.41458
H          8.97930        40.12949         1.37858
H         10.19572        42.26883         1.10830
H         12.57059        18.51512         0.45401
H         11.38652        20.66641         0.52090
H         11.37578        44.40457         0.80131
H         12.41887        46.46085        -0.09034
H         14.88828        14.19789         0.16661
H         13.75310        16.37184         0.43058
H         13.63152        48.66850        -0.75183
H         14.88657        50.86701        -0.56913
H         17.21299         9.78730         0.44133
H         16.04924        12.00897         0.32515
H         16.20600        52.77562         0.62179
H         17.26896        55.11170         0.25881
H         19.61107         5.50128         1.18582
H         18.41291         7.62365         0.68036
H         18.45026        57.23356         0.68263
H         19.63274        59.32706         0.89796
H         22.98436         2.18252         1.98462
H         20.83568         3.39783         1.69882
H         23.28387        62.16782        -0.58098
H         21.06136        61.22567        -0.10680
H         25.16083         3.34812         1.64508
H         26.44373         5.39058         1.11413
H         26.53678        59.34837         1.38439
H         25.35473        61.21007         0.37192
H         27.60061         7.61379         1.29019
H         29.04214         9.66513         0.45073
H         29.05201        55.07625         1.55447
H         27.77797        57.25258         1.70597
H         30.16266        11.92835         0.72025
H         30.23956        14.54945         1.91573
H         31.52890        50.84432         0.98607
H         30.28897        52.95684         1.18570
H         32.43682        16.21085         1.00486
H         33.65873        18.34462         1.13395
H         34.02113        46.55854         0.72339
H         32.79545        48.71661         0.87854
H         34.79249        20.44997         1.53445
H         35.94915        22.61013         2.00498
H         36.19896        42.29346         1.33868
H         35.17368        44.45763         0.80063
H         37.20849        24.73409         2.08846
H         38.48513        26.96698         2.25691
H         38.68764        37.93967         1.37265
H         37.53132        40.07331         1.09827
H         39.68180        29.11440         2.50159
H         40.85824        31.24581         2.82815
H         40.87631        33.71678         2.72073
H         39.75172        35.81290         2.10238
