         424
 CSIRO Nanostructure Databank - Neutral Graphene Oxide Data Set
C          1.32554         2.19807        -1.20908
C          1.26528         3.53000        -1.50915
C          2.55932         1.51022        -1.07116
C          2.49865         4.33595        -1.80949
C          1.23792         6.42101        -0.96803
C          1.18918         7.71915        -0.59871
C          2.48779         5.75635        -1.26738
C          2.43026         8.53009        -0.33627
C          1.13324        10.71902        -0.46045
C          1.14473        12.06957        -0.32730
C          2.36020         9.95949        -0.89293
C          2.36229        12.83284        -0.36921
C          1.15478        15.01837        -0.66020
C          1.17660        16.40117        -0.73982
C          2.34043        14.27632        -0.40022
C          2.39452        17.11512        -0.64569
C          2.42764        18.56378        -0.61174
C          3.78170         2.19837        -1.17955
C          3.77975         3.62548        -1.42439
C          5.02059         1.52904        -1.03998
C          4.96235         4.33589        -1.41105
C          3.67681         6.46022        -1.19051
C          3.69716         7.84699        -0.82496
C          4.94801         5.82008        -1.71566
C          4.88489         8.57658        -0.82369
C          3.64327        10.70764        -0.57199
C          3.61187        12.12466        -0.38243
C          4.85900        10.01260        -0.57273
C          4.82947        12.81552        -0.15158
C          3.55706        14.99075        -0.25444
C          3.58934        16.37931        -0.43847
C          4.76652        14.26067         0.26724
C          4.88180        17.08481        -0.50255
C          3.57933        19.27204        -0.46655
C          4.89309        18.60956        -0.53368
C          6.24229         2.21858        -1.13590
C          6.22383         3.66129        -1.28402
C          7.47834         1.53307        -1.04365
C          7.42018         4.38847        -1.35397
C          6.20810         6.52851        -1.27423
C          6.16378         7.90733        -0.97371
C          7.43241         5.82393        -1.27573
C          7.37207         8.61678        -0.70416
C          6.09482        10.71166        -0.36253
C          6.06150        12.12644        -0.11076
C          7.33398        10.01960        -0.39298
C          7.28223        12.82314         0.18104
C          6.07177        14.98941         0.08423
C          6.10431        16.38290        -0.07531
C          7.27378        14.27248         0.28415
C          7.31259        17.10598         0.05693
C          6.13612        19.27491        -0.12864
C          7.31685        18.56360         0.03051
C          8.70757         2.20323        -1.19107
C          8.68643         3.65194        -1.48691
C          9.93574         1.55608        -1.02945
C          9.99079         4.42616        -1.37019
C          8.66823         6.53206        -1.04007
C          8.62128         7.92852        -0.74225
C          9.92097         5.85843        -1.03073
C          9.83885         8.62716        -0.45232
C          8.55627        10.71935        -0.11594
C          8.51389        12.12550         0.20671
C          9.79293        10.03695        -0.13386
C          9.72416        12.80984         0.52637
C          8.47732        14.98824         0.46826
C          8.50088        16.39525         0.37293
C          9.67653        14.24346         0.98575
C          9.76049        17.10533         0.48110
C          8.56683        19.24085         0.23980
C          9.76713        18.55545         0.39491
C         11.18335         2.25168        -0.97573
C         11.22924         3.68418        -1.07842
C         12.35762         1.53284        -0.66958
C         12.44010         4.39371        -0.94567
C         11.11482         6.53455        -0.69337
C         11.06282         7.93346        -0.44345
C         12.40672         5.83571        -0.69703
C         12.36365         8.67415        -0.22604
C         10.99946        10.73003         0.23553
C         10.94383        12.13014         0.55281
C         12.22605        10.05650         0.33672
C         12.17290        12.81941         0.87604
C         10.97765        14.97816         0.77881
C         10.95240        16.39641         0.61417
C         12.17228        14.26635         0.91895
C         12.26229        17.09550         0.35550
C         11.01774        19.25637         0.51249
C         12.23311        18.59157         0.57005
C         13.60335         2.18976        -0.58023
C         13.64129         3.60626        -0.83054
C         14.81863         1.50407        -0.31624
C         14.92237         4.17166        -0.96010
C         13.52030         6.54601        -0.21428
C         13.28454         7.79991         0.61871
C         14.85946         6.16455        -0.47319
C         14.57547         8.50684         1.04683
C         13.40125        10.70458         0.82129
C         13.36458        12.11802         1.04302
C         14.60836         9.98372         1.06874
C         14.57435        12.80585         1.63411
C         13.43878        14.94912         1.06719
C         13.39445        16.42142         1.09009
C         14.62207        14.28048         1.31086
C         14.68491        17.17127         1.23634
C         13.48709        19.26222         0.59899
C         14.70450        18.58221         0.76746
C         16.05445         2.18247        -0.21733
C         16.10226         3.59786        -0.46591
C         17.27898         1.52623         0.04248
C         17.29149         4.37500        -0.22342
C         15.99911         6.50598         0.26359
C         15.90030         7.77805         1.02711
C         17.24491         5.78898         0.14152
C         17.14229         8.55897         1.14423
C         15.84812        10.67107         1.28063
C         15.87237        12.07358         1.40183
C         17.10888         9.92605         1.32101
C         17.10311        12.80273         1.50845
C         15.89005        14.98993         1.40473
C         15.92205        16.38373         1.29816
C         17.10648        14.21364         1.52559
C         17.19647        17.18790         1.40646
C         15.94451        19.17600         0.47427
C         17.16053        18.47864         0.61462
C         18.51319         2.19875        -0.04404
C         18.52082         3.66149        -0.15007
C         19.67185         1.39086         0.20848
C         19.71574         4.43884         0.01798
C         18.42940         6.42489         0.61792
C         18.38237         7.73418         1.37693
C         19.67542         5.78403         0.51117
C         19.65718         8.54245         1.32734
C         18.35571        10.65147         1.52055
C         18.34896        12.04897         1.58346
C         19.60147         9.90177         1.56025
C         19.61137        12.77305         1.56615
C         18.40052        14.96613         1.75548
C         18.42143        16.35319         1.15448
C         19.62617        14.16511         1.41897
C         19.57422        16.92548         0.67249
C         18.34958        19.01151         0.11726
C         19.57350        18.29427         0.15966
C         20.96975         1.76927        -0.15612
C         20.98314         3.89625        -0.26624
C         22.22247         1.35723         0.29970
C         22.19909         4.41765         0.21858
C         20.92385         6.45572         0.82588
C         20.92069         7.82820         1.23396
C         22.16639         5.77422         0.69270
C         22.14890         8.49491         1.45854
C         20.84242        10.61938         2.03153
C         20.85108        12.07324         1.64404
C         22.15064         9.91848         1.72828
C         22.05727        12.75872         1.55494
C         20.84013        14.82929         1.09305
C         20.82460        16.18924         0.65729
C         22.07450        14.12272         1.15423
C         22.00233        16.76975         0.15450
C         20.75777        18.85718        -0.32258
C         21.98288        18.14044        -0.34301
C         23.39873         2.17871         0.16357
C         23.39894         3.63526         0.21799
C         24.63149         1.50905         0.18107
C         24.63155         4.32209         0.46704
C         23.40759         6.43692         0.94625
C         23.40090         7.81235         1.31944
C         24.63932         5.72754         0.79197
C         24.64326         8.47383         1.58568
C         23.32807        10.60297         1.87483
C         23.32835        12.07859         1.89303
C         24.62084         9.88045         2.18100
C         24.62859        12.80864         1.64447
C         23.28988        14.76282         0.74893
C         23.21602        16.03594         0.16398
C         24.57999        14.13601         0.97802
C         24.39679        16.53541        -0.61533
C         23.16640        18.73965        -0.78397
C         24.39854        18.03260        -0.84195
C         25.86549         2.19635         0.20297
C         25.86331         3.62074         0.40046
C         27.08141         1.49927         0.08352
C         27.10455         4.31105         0.54212
C         25.87226         6.40172         1.03647
C         25.84406         7.77390         1.46432
C         27.11752         5.70101         0.86729
C         27.12163         8.41659         1.87846
C         25.87264        10.66666         1.81491
C         25.88113        12.00244         1.55381
C         27.15213         9.92142         2.14690
C         27.15614        12.72906         1.11926
C         25.75853        14.79877         0.67150
C         25.72199        16.01189        -0.10840
C         27.06062        14.30430         1.29079
C         26.86487        16.61566        -0.60461
C         25.56925        18.63964        -1.24946
C         26.81644        17.91061        -1.28722
C         28.31964         2.17843         0.14222
C         28.32867         3.59764         0.38971
C         29.53614         1.48467        -0.00923
C         29.57214         4.27450         0.51443
C         28.38391         6.33947         1.06591
C         28.42478         7.70718         1.63647
C         29.58137         5.65519         0.88793
C         29.69296         8.48576         1.51345
C         28.41546        10.60315         1.66586
C         28.39636        11.99868         1.65089
C         29.65158         9.88768         1.59600
C         29.67345        12.64792         1.77635
C         28.26091        15.01897         0.66158
C         28.16454        16.04675        -0.32253
C         29.53792        14.71464         1.09062
C         29.32863        16.61259        -0.86698
C         27.94536        18.44311        -1.85430
C         29.22135        17.65661        -1.95472
C         30.77769         2.16309         0.03264
C         30.79036         3.57016         0.29713
C         31.99736         1.47266        -0.17540
C         32.04515         4.28534         0.28608
C         30.89182         6.27764         1.32018
C         30.90509         7.79403         1.24571
C         32.08638         5.63635         0.66568
C         32.12432         8.48966         1.00372
C         30.97167        10.62380         1.65830
C         30.87106        12.10474         1.41187
C         32.13160         9.93555         0.99849
C         32.13740        12.94776         1.28475
C         30.74006        15.04609         0.41689
C         30.61720        16.11586        -0.52311
C         31.97884        14.34054         0.59555
C         31.80116        16.75379        -0.98580
C         30.45099        18.51391        -2.05061
C         31.70533        18.02767        -1.67778
C         33.22708         2.17017        -0.26298
C         33.22809         3.58653        -0.09831
C         34.45360         1.48373        -0.49787
C         34.43227         4.36444        -0.52839
C         33.40815         6.31724         0.87480
C         33.34475         7.81805         0.71815
C         34.54153         5.71632         0.10388
C         34.54163         8.53333         0.50265
C         33.26338        10.66632         0.70473
C         33.15593        12.15302         0.41959
C         34.53031         9.99021         0.49850
C         34.47417        12.88138         0.38382
C         33.11735        14.91047         0.01066
C         33.05255        16.19365        -0.64661
C         34.41894        14.23861         0.06217
C         34.24564        16.90547        -0.97014
C         32.90477        18.75158        -1.91151
C         34.16603        18.21074        -1.56713
C         35.70013         2.16830        -0.52160
C         35.71848         3.59362        -0.45673
C         36.93419         1.46850        -0.58773
C         36.93733         4.30176        -0.46569
C         35.73860         6.41548         0.01368
C         35.77313         7.83737         0.26643
C         36.95722         5.73126        -0.33048
C         37.00798         8.53071         0.15732
C         35.72114        10.69701         0.44018
C         35.77778        12.19185         0.69018
C         37.00673         9.97793         0.44375
C         36.96642        12.84234         0.00253
C         35.58816        14.95982        -0.28830
C         35.52524        16.31888        -0.70969
C         36.83907        14.20481        -0.62653
C         36.71249        17.04992        -0.95851
C         35.36501        18.92035        -1.81274
C         36.63225        18.36905        -1.50282
C         38.16360         2.15711        -0.60877
C         38.16729         3.58808        -0.56275
C         39.42027         1.47716        -0.66342
C         39.39106         4.31067        -0.64494
C         38.18205         6.44338        -0.41667
C         38.20330         7.87371        -0.19373
C         39.37903         5.73174        -0.66200
C         39.44755         8.60381        -0.37488
C         38.29113        10.75337         0.23083
C         38.17146        12.19563        -0.11084
C         39.47810        10.02093        -0.25667
C         39.36971        12.90548        -0.52336
C         38.10038        15.01179        -0.54784
C         38.03719        16.51170        -0.47023
C         39.32471        14.34386        -0.65308
C         39.22431        17.16078        -1.13797
C         37.82296        19.10315        -1.74990
C         39.10045        18.49066        -1.63594
C         40.61285         2.18184        -0.65572
C         40.63111         3.59591        -0.65331
C         41.85950         4.35131        -0.54074
C         40.63165         6.44482        -1.08891
C         40.62514         7.92704        -0.79377
C         41.87048         5.70352        -0.64293
C         41.77283         8.66366        -1.09749
C         40.63341        10.75593        -0.61284
C         40.60382        12.22461        -0.61751
C         41.78248        10.05494        -1.01775
C         41.78804        12.97818        -0.75986
C         40.54963        15.07634        -0.85815
C         40.46960        16.49912        -1.18666
C         41.75792        14.36952        -0.86847
C         41.60162        17.20605        -1.65594
C         40.26292        19.17229        -2.08654
C         41.49728        18.53558        -2.07436
O         15.04801         5.39325        -1.63227
O         21.03002         2.80804        -1.12495
O         29.66275        13.96336         2.26118
O         37.87702        10.38336         1.59714
O         15.09258         7.83748         2.26433
O         24.04051        12.74213         2.99369
O         13.74987        16.97998         2.38067
O         27.80063         7.70727         2.97908
O          9.43208         4.06277        -2.68550
O          5.06270        17.80400        -1.76785
O         24.60227         9.71445         3.63097
H         25.52718         9.86429         3.95862
O         13.02386         8.81940        -1.52210
H         12.41974         9.31171        -2.11662
O         18.28200         7.30953         2.78841
H         18.26741         8.12081         3.34103
O         31.01821         5.93771         2.74742
H         31.97111         6.05974         2.98416
O         20.73694        10.57908         3.49959
H         21.60356        10.86077         3.86654
O         18.46500        15.16853         3.23135
H         19.39452        15.39226         3.45436
O         17.26409        17.59954         2.81518
H         17.46975        16.78014         3.33181
O         40.64202         6.36279        -2.56864
H         40.61316         5.41024        -2.80285
O         36.00271        12.35042         2.13165
H         36.77013        11.76502         2.35171
O         32.60505        12.22398        -0.93813
H         33.24319        11.79600        -1.54689
O         27.24022        12.56467        -0.32880
H         27.30876        11.60816        -0.53160
O         36.66002        13.91772        -2.08765
H         37.50901        13.53808        -2.40447
O         34.19969         4.61442        -1.99201
H         34.25634         3.74216        -2.43892
O         14.37794        12.74170         3.09775
H         13.58436        13.27834         3.31092
O         29.15035        16.91474        -3.24267
H         29.96606        16.37287        -3.30509
O          9.49424        14.18335         2.45485
H          9.49819        15.10729         2.78502
O          2.53837         4.48779        -3.28555
H          2.55830         3.58386        -3.66701
O         24.23423        15.93628        -1.95485
H         25.01312        16.20799        -2.48735
O         33.73658         6.09327         2.32397
H         34.54044         6.62360         2.51830
O         32.70706        13.12312         2.59823
H         32.07298        13.64926         3.13029
O         31.35479        10.55368         3.09748
H         32.11096        11.17687         3.21547
O          4.90952         5.95887        -3.17056
H          4.06281         5.54004        -3.47247
O          2.27850         9.83945        -2.34477
H          2.26863        10.74410        -2.72128
O          2.54420         8.66162         1.11378
H          2.58132         7.75970         1.49490
O         12.55999        16.89183        -1.06635
H         11.83031        17.29444        -1.58307
O         27.26205        10.07738         3.60348
H         27.78654         9.29696         3.91637
O         26.99899        14.60918         2.69274
H         27.87750        14.39352         3.08051
O          4.56772        14.23067         1.73607
H          5.29237        13.68845         2.11582
O         12.56498         7.44291         1.81260
H         13.23990         7.24608         2.50276
O         38.11142        16.86745         0.97274
H         38.25462        17.83636         1.02567
H          0.39140         1.63271        -1.07453
H          0.28348         3.99570        -1.67198
H          2.56088         0.43207        -0.86001
H          0.29763         5.86574        -1.09009
H          0.21326         8.18260        -0.39415
H          0.17635        10.18216        -0.39225
H          0.20040        12.59425        -0.12025
H          0.19806        14.49324        -0.78731
H          0.23986        16.95445        -0.90068
H          1.46247        19.09274        -0.61761
H          5.02615         0.44065        -0.88070
H          3.54683        20.36244        -0.32289
H          7.47648         0.44923        -0.85546
H          6.13792        20.36878        -0.00637
H          9.94191         0.47122        -0.84587
H          8.57544        20.34099         0.21506
H         12.30056         0.44593        -0.51254
H         10.99662        20.35578         0.56549
H         14.79499         0.41361        -0.17583
H         13.50729        20.35125         0.43547
H         17.27625         0.44296         0.23333
H         15.96054        20.18441         0.03176
H         19.51848         0.42737         0.71686
H         18.33244        19.99900        -0.36963
H         22.33273         0.38503         0.80180
H         20.74341        19.89095        -0.69995
H         24.64024         0.41007         0.14226
H         23.15186        19.79957        -1.08212
H         27.06788         0.40955        -0.06529
H         25.56723        19.69932        -1.54748
H         29.51933         0.39978        -0.19001
H         27.89993        19.43362        -2.33262
H         31.98075         0.38369        -0.32749
H         30.38199        19.47485        -2.58306
H         34.44160         0.38780        -0.58527
H         32.85426        19.73985        -2.39133
H         36.92797         0.36873        -0.61607
H         35.31302        19.92581        -2.25616
H         39.43099         0.37784        -0.68365
H         37.75148        20.12576        -2.14750
H         41.56875         1.63751        -0.65660
H         42.78920         3.80269        -0.32501
H         42.81645         6.25404        -0.53514
H         42.67357         8.14452        -1.45300
H         42.69399        10.59556        -1.30412
H         42.76273        12.47354        -0.78534
H         42.71098        14.90205        -0.99057
H         42.58230        16.71360        -1.70158
H         40.17087        20.20084        -2.46412
H         42.39337        19.06657        -2.42496
