         272
 CSIRO Nanostructure Databank - Neutral Graphene Oxide Data Set
C        -11.24583         0.57034         0.82470
C         -9.92896         1.31010         0.96899
C         -8.73866         0.42913         0.55966
C         -7.38122         1.04539         0.61385
C         -6.21270         0.45408        -0.13673
C         -4.85042         1.09127        -0.03409
C         -3.81988         0.72777        -1.08043
C         -2.48878         1.42428        -1.09036
C         -1.30392         0.69447        -1.70427
C         -0.00417         1.41729        -1.81109
C          1.28021         0.62552        -2.02121
C          2.58448         1.41891        -2.05032
C          3.87188         0.63476        -1.84044
C          5.12425         1.41275        -1.42341
C          5.98383         0.76664        -0.35275
C          7.02541         1.53676         0.40729
C          8.03765         0.81032         1.26126
C          9.16994         1.57032         1.86330
C         10.40972         0.82443         2.21274
C         -9.74928         2.66008         0.26843
C         -8.52939         3.24121         0.25697
C         -7.37712         2.52914         0.96070
C         -5.99062         3.19246         0.89629
C         -4.69596         2.37024         0.86488
C         -3.37000         3.18316         0.60589
C         -2.21311         2.60992        -0.18371
C         -0.93461         3.47280        -0.45295
C          0.03242         2.89153        -1.49573
C          1.28338         3.67894        -1.74954
C          2.59836         2.93421        -1.99744
C          3.90648         3.70078        -1.75261
C          5.19253         2.91644        -1.52302
C          6.39797         3.63519        -0.88794
C          7.39275         2.92715        -0.01302
C          8.35796         3.69679         0.83993
C          9.21388         3.04107         1.65556
C         -8.27871         4.62491        -0.29143
C         -7.19805         5.42460         0.43352
C         -5.99355         4.67300         0.89421
C         -4.68155         5.40639         1.07414
C         -3.29532         4.67449         1.06150
C         -2.33271         5.53569         0.16818
C         -1.23003         4.96728        -0.68306
C         -0.00104         5.82779        -0.99650
C          1.29513         5.15171        -1.34054
C          2.55043         5.62829        -0.64244
C          3.84955         5.12560        -1.27797
C          5.05899         5.80329        -0.69621
C          6.34730         5.10029        -0.58217
C          7.67780         5.83889        -0.43762
C          8.43177         5.22428         0.76839
C         -7.22536         6.77492         0.40084
C         -5.97977         7.63046         0.44259
C         -4.76957         6.89651         1.00954
C         -3.50416         7.69193         0.96616
C         -2.25649         6.98938         0.58666
C         -1.16099         7.89213         0.12385
C          0.01455         7.28051        -0.54142
C          1.35949         8.01998        -0.56628
C          2.56844         7.12736        -0.24115
C          3.84658         7.87103        -0.06841
C          5.06200         7.31658        -0.85535
C          6.35131         8.01427        -0.47106
C          7.50889         7.34223        -0.28529
C         -6.04052         8.97309         1.15245
C         -4.91789         9.69307         1.32362
C         -3.58952         9.19757         0.76990
C         -2.32885         9.86549         1.35098
C         -1.05915         9.23387         0.77647
C          0.13082         9.88819         0.74938
C          1.38041         9.30935         0.26894
C          2.55517         9.98243         0.42168
C          3.93116         9.35925         0.30995
C          5.03147        10.08685        -0.42476
C          6.22137         9.47285        -0.60044
C        -11.35215        -0.74122         0.54055
C        -10.26088        -1.49529        -0.14081
C         -8.97165        -0.76608        -0.31031
C         -7.75021        -1.52507        -0.72994
C         -6.48221        -0.73323        -1.03385
C         -5.25219        -1.46278        -1.50919
C         -3.95294        -0.65722        -1.84746
C         -2.64345        -1.50292        -1.81262
C         -1.29824        -0.82120        -1.79735
C         -0.03022        -1.58808        -1.52465
C          1.25967        -0.89300        -1.91492
C          2.57211        -1.74464        -2.03926
C          3.87873        -0.88128        -1.77316
C          5.21230        -1.54723        -1.27115
C          5.92621        -0.74763        -0.18013
C          7.00128        -1.43499         0.63183
C          8.23312        -0.63895         0.93980
C          9.51342        -1.31895         1.33155
C         10.54532        -0.50144         2.02198
C        -10.27774        -3.03256        -0.22325
C         -8.92014        -3.69267         0.04325
C         -7.71707        -2.99486        -0.47061
C         -6.34496        -3.53243        -0.21314
C         -5.15853        -2.85247        -0.86142
C         -3.86420        -3.64490        -0.90704
C         -2.66799        -2.99781        -1.55341
C         -1.35787        -3.71252        -1.33842
C         -0.08844        -2.93178        -1.27156
C          1.15222        -3.73582        -1.01473
C          2.47210        -3.09076        -1.29210
C          3.74326        -3.70062        -0.76596
C          5.06344        -3.00949        -0.85354
C          6.29479        -3.67767        -0.25691
C          7.13121        -2.94594         0.75488
C          8.47954        -3.56944         0.98804
C          9.54767        -2.79169         1.39018
C         -8.80915        -4.97298         0.48803
C         -7.54086        -5.68435         0.61239
C         -6.22270        -4.91106         0.45831
C         -5.14089        -5.81129        -0.18075
C         -3.85720        -5.12878        -0.60463
C         -2.62612        -5.99124        -0.87489
C         -1.35149        -5.18617        -0.91144
C         -0.19628        -5.72040        -0.12557
C          1.02532        -4.80389         0.07804
C          2.35029        -5.58052         0.37277
C          3.67012        -4.93668         0.08075
C          4.93433        -5.76698         0.19602
C          6.28703        -5.15846        -0.10461
C          7.42371        -5.82360         0.62236
C          8.49653        -4.99889         1.07199
C         -7.46886        -6.97758         1.02673
C         -6.14074        -7.59894         1.42518
C         -5.06758        -7.17945         0.40246
C         -3.72163        -7.83002         0.55109
C         -2.69557        -7.51208        -0.53503
C         -1.31607        -8.13477        -0.21407
C         -0.20195        -7.18157         0.19356
C          1.12871        -7.87124         0.20165
C          2.38504        -7.09884         0.32189
C          3.58768        -7.95173         0.84659
C          4.91559        -7.19868         0.61034
C          6.19257        -7.91814         0.12491
C          7.38993        -7.20790         0.70925
C         -6.13744        -9.10331         1.57384
C         -4.97167        -9.77021         1.62445
C         -3.66769        -9.13235         1.30841
C         -2.46558        -9.98137         1.11107
C         -1.36153        -9.40556         0.60299
C         -0.18228        -9.91570        -0.17184
C          1.12682        -9.37791         0.45304
C          2.43044        -9.99416        -0.00600
C          3.60368        -9.34518         0.20989
C          4.89513       -10.03132         0.16044
C          6.09076        -9.41097         0.27370
O          5.11841        -6.19316         1.61775
O         -2.32059         2.35682         1.23452
O         -6.09163         3.94990         2.19824
O          5.66374         1.43967         0.92194
O         -0.90029         1.26841        -2.96708
O          0.24269         3.56426        -2.75658
O          9.25747        -0.85240        -0.07358
O          3.05974        -4.85308         1.40324
O          5.69597         2.05462        -2.58534
O         -3.50120        -4.14100         0.41940
O         -2.50714         5.32736        -1.26437
O         -5.52516        -2.60223         0.54288
O          3.96421         4.83749        -2.68154
O         -1.82313        -5.94202        -2.08160
O         -2.02940        -3.66443        -2.65098
O         -1.01162         7.98428        -1.31930
O         -5.57030        -6.95156        -0.95674
O          2.64570         2.23433        -3.26124
O         -7.84224         0.15255         1.67401
O          1.92602        -7.52131        -0.98946
O          0.59020         5.90538        -2.33978
O          1.10177        -0.20243        -3.19547
O         -0.62598        -8.98583        -1.26360
O         -6.23854        -0.93710        -2.44574
O          5.71551        -1.05342         1.21314
O          1.57161         8.55191        -1.83336
O         -4.89465         6.22506         2.28676
O         -1.90211        -1.25411        -3.04529
O          4.17170        -0.17166        -3.00924
O          5.46754         5.31354         0.61442
O          7.99849         1.13330         2.67415
O         -5.84835        -4.66908         1.78460
O         -0.56637        -6.23665         1.22039
O          1.87366        -4.11843        -2.18825
O          7.64592         3.14544        -1.43451
O         -7.98921        -2.47671        -1.80680
O         -3.54468         1.78689        -2.03367
O         -5.17275        -0.02175         0.81654
O         -3.31177        -7.83792         1.93299
O          3.37208        -8.17224         2.20219
O          6.85600        -4.54120        -1.29876
O         -2.55607         7.25925         1.99152
O          3.24998         7.18502         1.07145
O         -7.63351         2.73903         2.37249
O          4.61177        -3.86806        -1.93300
O          6.38565        -3.15694         2.09696
O         -9.95582        -0.72596        -1.37581
O          4.79489         7.60851        -2.18296
O         -2.78115         4.64830         2.38584
H         -3.16324         5.41945         2.87116
O         -5.78910        -7.10242         2.72766
H         -5.70065        -6.10881         2.66041
O         -0.14751         3.44758         0.75845
H         -0.76603         3.32748         1.52228
O          6.19511        -7.65475        -1.31316
H          6.95114        -8.12897        -1.71810
O          1.05774        -9.60147         1.87607
H          1.87432        -9.17562         2.27045
O          2.47701         4.86933         0.59671
H          3.11083         5.28256         1.23198
O          6.83985        -4.34547         2.76121
H          6.08377        -4.98783         2.63977
O          0.72131        -4.01428         1.24227
H          0.45283        -4.63048         1.96186
O          7.90055         5.76232         1.98061
H          6.92364         5.64819         1.96309
O          2.67648        -2.13176        -3.40351
H          2.54932        -1.32711        -3.95636
O         -3.20234        -8.14513        -1.71498
H         -2.59505        -7.92107        -2.45418
O         -7.77918         4.45796        -1.63005
H         -7.64465         5.34176        -2.03189
O          6.15014        -1.53171        -2.35332
H          5.75461        -2.02270        -3.10615
O          4.38502         9.38321         1.69465
H          3.88865         8.68147         2.17475
O         -3.57795         9.45158        -0.65540
H         -3.30796        10.38900        -0.77960
O         -2.41917        11.24891         1.01224
H         -1.60788        11.71039         1.30643
O         -4.14388        -0.29746        -3.21107
H         -3.26542        -0.10946        -3.61624
O        -11.25766        -3.54990         0.67246
H        -10.97948        -3.36163         1.59220
O          8.49171         5.62211        -1.60055
H          8.02037         5.96103        -2.38981
O         -9.88701         1.55657         2.38743
H         -8.94472         1.74902         2.65966
O         -5.73883         7.85033        -0.97092
H         -5.02182         8.52918        -1.08252
O         -4.59651         1.91724         2.21245
H         -3.77654         1.38925         2.31390
H         11.46401        -1.01421         2.34436
H         11.22574         1.39279         2.68405
H          9.95691         3.61289         2.23303
H          9.50655         5.53052         0.71344
H          8.43760         7.90508        -0.09984
H          7.09149        10.04204        -0.96304
H          4.92221        11.16556        -0.60614
H          2.53272        10.93374         0.98011
H          0.20479        10.90080         1.18112
H         -2.32359         9.74889         2.47410
H         -4.95183        10.67943         1.81034
H         -7.00885         9.35219         1.51274
H         -8.13135         7.27166         0.01543
H         -9.23539         5.21613        -0.31582
H        -10.62183         3.19065        -0.14378
H        -12.12310         1.10044         1.22607
H        -12.32862        -1.24301         0.62436
H        -10.59449        -3.32617        -1.25799
H         -9.71912        -5.51577         0.78982
H         -8.39333        -7.56012         1.17001
H         -7.08768        -9.62519         1.76258
H         -4.96247       -10.85790         1.79530
H         -2.48361       -11.03815         1.41461
H         -0.15259       -10.98097        -0.49530
H          2.43017       -11.03621        -0.36492
H          4.86568       -11.13188         0.11557
H          7.01894       -10.00259         0.29002
H          8.17607        -7.76016         1.24789
H          9.40514        -5.48319         1.46576
H         10.48305        -3.27791         1.71019
