         314
 CSIRO Nanostructure Databank - Neutral Graphene Oxide Data Set
C         30.53047        57.26891        -1.33493
C         30.57497        58.68839        -1.50470
C         29.40361        59.45860        -1.72478
C         30.72579        61.49577        -1.80791
C         29.49536        60.84142        -1.88341
C         32.79646        52.94741        -0.21749
C         32.54356        54.37678         0.18027
C         31.57798        55.02725        -0.83031
C         32.92057        57.15768        -0.89634
C         31.66948        56.53278        -0.96639
C         33.04759        58.54929        -1.33698
C         31.83091        59.35119        -1.47713
C         33.17577        61.42903        -1.39071
C         31.92268        60.76309        -1.59452
C         35.19827        48.65589        -0.29003
C         35.13214        50.05567         0.01308
C         34.03555        50.84072        -0.27864
C         35.15233        52.95848         0.46268
C         33.99598        52.26470         0.00448
C         34.99839        54.36140         1.01288
C         33.83767        55.16727         0.42298
C         35.40173        57.13974        -0.20627
C         34.04050        56.53240        -0.16270
C         35.52600        58.53565        -0.57322
C         34.37616        59.26648        -1.15508
C         35.54393        61.41545        -0.70427
C         34.35502        60.74643        -1.07453
C         37.64110        44.35637        -0.25253
C         37.59915        45.75071        -0.24103
C         36.38451        46.47340        -0.25985
C         37.56555        48.52351         0.46674
C         36.33766        47.87750        -0.07154
C         37.60261        50.01431         0.49464
C         36.28991        50.69756         0.69203
C         37.64642        52.84500         1.13026
C         36.32738        52.18163         0.88868
C         37.61293        54.32982         1.21465
C         36.34216        55.12287         1.02208
C         37.81322        57.02719         0.19743
C         36.47043        56.45321         0.34904
C         37.93971        58.53116        -0.12324
C         36.69132        59.25711        -0.34057
C         37.93391        61.37623        -0.08323
C         36.72963        60.70903        -0.38382
C         40.20173        40.18426         0.03514
C         40.11767        41.48557        -0.39835
C         38.90738        42.24512        -0.25880
C         40.12088        44.38002        -0.43380
C         38.86972        43.63639        -0.35262
C         40.16038        45.73851        -0.21783
C         38.88998        46.53301        -0.38441
C         40.14534        48.56930         0.52558
C         38.86882        47.81096         0.41590
C         40.13871        49.91783         0.83115
C         38.88884        50.73155         0.74947
C         40.09686        52.80557         1.80215
C         38.83340        52.15848         1.20388
C         40.04427        54.32714         1.60358
C         38.92574        55.00651         1.09138
C         40.20147        57.10821         0.90956
C         38.98606        56.38704         0.81446
C         40.30033        58.54475         0.67695
C         39.15373        59.25297         0.28560
C         40.32272        61.37800         0.58622
C         39.13860        60.69117         0.26616
C         42.99129        36.67822         2.05396
C         42.82807        37.62600         1.00246
C         41.59428        38.20465         0.74462
C         42.63352        39.96805        -0.81766
C         41.39747        39.34176        -0.16076
C         42.62032        41.45199        -1.08096
C         41.30643        42.18130        -0.96715
C         42.68450        44.37973        -0.68807
C         41.35103        43.67232        -0.83685
C         42.67025        45.73051        -0.08385
C         41.40649        46.44558         0.03175
C         42.59943        48.44231         0.90449
C         41.36768        47.79759         0.42313
C         42.67073        49.92456         0.89441
C         41.40293        50.68348         0.83646
C         42.78274        52.71024         1.47935
C         41.41081        52.15899         1.25236
C         43.01893        54.02459         1.92101
C         41.13146        55.14544         1.93032
C         42.66152        57.05335         1.22817
C         41.31643        56.44843         1.45875
C         42.73262        58.54034         1.27437
C         41.51354        59.23792         0.99246
C         42.69917        61.37040         1.22506
C         41.52605        60.68432         0.93084
C         45.64225        34.71637         3.81374
C         44.38234        35.19897         3.43913
C         45.45537        36.76325         1.85061
C         44.25365        36.19777         2.44302
C         45.34782        37.67155         0.80725
C         44.03513        38.00604         0.23611
C         45.18357        40.01829        -0.96565
C         43.96046        39.28500        -0.69175
C         45.13835        41.46632        -1.16373
C         43.88756        42.21181        -0.88834
C         45.20771        44.28184        -0.46269
C         43.94106        43.57401        -0.67531
C         45.16163        45.62741        -0.02258
C         43.89641        46.30359         0.23440
C         45.17765        48.37969         0.92977
C         43.89142        47.63474         0.87060
C         45.17099        49.88976         0.95514
C         43.87293        50.59247         0.88126
C         45.15667        52.72770         0.79294
C         43.92625        52.03420         0.98072
C         45.19704        54.14645         0.90056
C         44.06655        54.80661         1.44227
C         45.20607        57.01020         1.16403
C         43.93672        56.26489         1.19927
C         45.19078        58.40030         1.43951
C         43.96318        59.18393         1.46473
C         45.15397        61.39809         0.90248
C         43.99145        60.71600         1.63094
C         46.80335        35.21199         3.23509
C         47.92292        36.70965         1.64367
C         46.75884        36.25895         2.26194
C         47.91325        37.86795         0.76557
C         46.53802        38.38369         0.31949
C         47.73314        39.99963        -1.17010
C         46.45854        39.18761        -0.97601
C         47.70727        41.49645        -1.33061
C         46.42761        42.26696        -1.25930
C         47.72679        44.25856        -0.42478
C         46.47432        43.64050        -0.69777
C         47.66800        45.62089         0.07140
C         46.40747        46.31644         0.17742
C         47.58367        48.46829         0.46610
C         46.40042        47.70514         0.48275
C         47.60104        49.90852         0.40631
C         46.39043        50.61409         0.55116
C         47.55396        52.71364         0.09225
C         46.36767        52.01716         0.45130
C         47.49470        54.19179        -0.02512
C         46.35040        54.90769         0.54632
C         47.63034        57.04173         0.65239
C         46.39937        56.31308         0.79707
C         47.67478        58.43205         1.05661
C         46.48040        58.98202         1.60041
C         47.72808        61.52751         0.78953
C         46.45006        61.13587         1.26938
C         49.09833        38.26922        -0.01017
C         50.19229        40.07538        -1.31774
C         49.04270        39.38930        -0.81058
C         50.16472        41.46861        -1.50645
C         48.96698        42.22969        -1.16104
C         50.32838        44.19334        -0.89505
C         49.00009        43.56300        -0.77690
C         50.72171        45.31551        -0.20412
C         48.80220        46.36580         0.49498
C         50.02332        48.54905         0.53428
C         48.81394        47.77424         0.54704
C         50.06834        49.87499         0.13697
C         48.81462        50.60668         0.10453
C         50.00005        52.75561        -0.47820
C         48.75785        52.01412        -0.11296
C         50.07186        54.21316        -0.14856
C         48.81081        54.96633        -0.12579
C         50.06629        57.04900         0.34945
C         48.83371        56.37492         0.30239
C         50.05136        58.55359         0.25880
C         48.84128        59.22282         0.88466
C         50.14882        61.30486         0.84592
C         48.87953        60.67988         0.89108
C         51.30292        42.18785        -1.93691
C         52.56816        44.28014        -2.02180
C         51.38877        43.57236        -1.69752
C         52.82024        45.59852        -1.54612
C         51.86743        46.11806        -0.56835
C         52.99687        48.36394        -0.62289
C         51.96546        47.42457        -0.15320
C         52.58825        49.78809        -0.94854
C         51.27674        50.46400        -0.54553
C         52.57234        52.67875        -0.43790
C         51.26339        51.97712        -0.67856
C         52.54578        54.16298        -0.09031
C         51.25677        54.89037         0.00673
C         52.52930        57.01134         0.34267
C         51.29047        56.33279         0.22023
C         52.55228        58.43802         0.61443
C         51.35676        59.17928         0.65606
C         52.62266        61.22937         1.08703
C         51.38124        60.58115         0.88218
C         53.93745        46.36266        -1.89089
C         55.13823        48.65383        -1.97300
C         54.11426        47.74067        -1.42672
C         55.06782        50.01333        -1.73819
C         53.70304        50.67896        -1.58322
C         54.91677        52.86187        -1.32635
C         53.78337        52.05039        -0.95429
C         54.92788        54.37342        -0.90868
C         53.75237        54.96036        -0.28401
C         55.01714        57.00380         0.12531
C         53.76756        56.31788         0.08529
C         55.04353        58.34600         0.74814
C         53.78766        59.10643         0.83608
C         55.10730        61.20056         1.18092
C         53.82909        60.50646         1.06188
C         56.23670        50.83037        -1.80868
C         57.40331        52.98989        -1.50496
C         56.22803        52.21221        -1.55882
C         57.43674        54.35918        -1.11207
C         56.21479        55.04099        -0.75332
C         57.47518        57.12774        -0.36192
C         56.21491        56.35523        -0.25469
C         57.52699        58.53939         0.12988
C         56.33618        59.10864         0.83127
C         57.62574        61.32486         1.10017
C         56.30536        60.57344         1.03197
C         58.67233        55.03525        -0.95400
C         59.94905        57.06315        -0.32553
C         58.74601        56.39092        -0.54832
C         60.01700        58.41587         0.15916
C         58.83157        59.15877         0.42167
C         60.12907        61.05618         1.15720
C         58.87471        60.47434         0.91517
C         61.26211        59.03747         0.42136
C         61.30751        60.33615         0.91561
O         41.98465        44.33005        -1.98012
O         49.96988        45.72805         0.89566
O         51.43238        49.78061        -1.84852
O         43.16969        56.52174        -0.07039
O         33.59196        56.33424         1.25957
O         50.52389        52.45214        -1.83969
O         47.24213        39.07185         1.38305
O         41.81256        41.75631        -2.26410
O         54.62402        53.93199        -2.28555
O         43.93789        37.91705        -1.20303
O         41.71363        39.18390        -1.59976
O         34.00670        58.73783        -2.47109
O         41.33580        51.78137        -0.15098
O         47.76814        40.59971        -2.49636
O         36.93604        54.99819         2.36474
O         36.02574        51.21260         2.02396
O         38.09587        47.82758         1.65322
O         47.96807        54.72434        -1.30703
O         52.70449        53.12593         0.97790
O         38.32499        50.59627        -0.63382
O         54.22507        48.03506         0.09310
O         45.36363        49.10566         2.18756
O         45.65964        42.03509        -2.46925
O         43.12303        47.75365         2.10245
O         38.13657        57.49780        -1.14893
O         55.87885        58.34588         1.99299
O         57.30584        58.27692        -1.29813
O         51.19092        47.88838         0.90273
O         42.10528        54.62439         2.77868
O         46.58347        60.15037         2.32336
O         38.93635        46.99301        -1.77564
H         39.08561        46.21222        -2.35038
O         31.85303        54.30347         1.45247
H         32.54421        54.20003         2.14847
O         49.91916        58.83571        -1.19767
H         49.13489        58.34094        -1.52007
O         40.08993        52.49825         3.21198
H         39.31246        52.92844         3.62541
O         44.13642        60.97558         3.06334
H         45.05476        60.71060         3.30499
O         31.89608        54.47737        -2.12052
H         31.37107        54.94872        -2.79978
O         53.32228        50.94170        -2.96062
H         52.33663        50.99384        -2.99405
O         57.63673        62.37991         0.12178
H         57.66274        61.97135        -0.76803
O         34.57608        54.14024         2.38969
H         35.39397        54.15411         2.94437
O         46.41556        38.23092        -2.05660
H         46.42206        38.74307        -2.89430
H         29.56045        56.75495        -1.41385
H         28.42623        58.95797        -1.76834
H         30.77424        62.58970        -1.90411
H         28.58157        61.42763        -2.05480
H         31.92077        52.36787        -0.54710
H         30.52727        54.73555        -0.55100
H         33.18536        62.52938        -1.39475
H         34.30594        48.18146        -0.72618
H         33.14939        50.38669        -0.74693
H         35.55606        62.51541        -0.69166
H         36.70296        43.78599        -0.17799
H         35.44292        45.92583        -0.42086
H         37.94810        62.47595        -0.11024
H         39.33026        39.72665         0.52787
H         37.97690        41.70033        -0.04075
H         40.33172        62.47803         0.56955
H         42.09371        36.31437         2.57630
H         40.74515        37.92544         1.38788
H         42.68856        62.47109         1.20872
H         45.71110        33.92659         4.57501
H         43.47547        34.78607         3.90335
H         44.94061        62.12054         0.10325
H         47.78228        34.81400         3.53826
H         48.87276        36.18247         1.81655
H         47.87078        62.53952         0.38330
H         50.06353        37.79199         0.21413
H         51.15687        39.54949        -1.37553
H         50.19072        62.40464         0.86666
H         52.15961        41.65274        -2.37127
H         53.33418        43.77383        -2.62667
H         52.64562        62.31833         1.24244
H         54.63341        45.98608        -2.65412
H         56.09663        48.20786        -2.28440
H         55.08095        62.28961         1.33803
H         57.20273        50.32966        -1.98080
H         58.36305        52.49497        -1.72013
H         57.68648        61.83191         2.10036
H         59.60662        54.48675        -1.14776
H         60.89635        56.52663        -0.48853
H         60.18417        62.09131         1.52225
H         62.19325        58.48569         0.22855
H         62.27932        60.81043         1.11168
