         296
 CSIRO Nanostructure Databank - Neutral Graphene Oxide Data Set
C         30.64698        31.57272        -0.60628
C         30.80926        32.65120        -1.27397
C         30.37474        36.11462        -1.26117
C         30.30588        37.33311        -1.40318
C         30.39536        40.59785        -1.84171
C         30.34989        41.74713        -1.31580
C         32.53331        29.18874         1.66161
C         31.63275        29.75163         0.98485
C         32.60138        31.92329         0.77273
C         31.43103        31.00133         0.39150
C         32.61416        33.33637         0.23355
C         31.28619        33.85923        -0.46233
C         32.77550        35.91326        -1.22336
C         31.47457        35.14475        -1.22273
C         32.75671        37.45837        -1.10704
C         31.48937        38.21730        -1.78341
C         32.69146        40.40221        -1.22067
C         31.36482        39.61309        -1.18233
C         32.66629        41.80590        -0.67002
C         31.36919        42.50682        -0.71335
C         32.48874        44.42675         0.24656
C         31.48105        43.78814        -0.13636
C         35.34741        27.57892         1.75469
C         35.16633        29.04301         1.81218
C         33.87800        29.81664         1.75252
C         35.12900        31.83285         0.63524
C         33.88327        31.24370         1.23393
C         35.17595        33.38185         0.58023
C         33.92334        34.03339        -0.03280
C         35.31125        35.92069        -1.06911
C         33.99526        35.24239        -0.66203
C         35.29422        37.45087        -1.02980
C         34.04873        38.13569        -1.59982
C         35.18551        40.27732        -0.59413
C         33.99331        39.66255        -1.31568
C         35.21824        41.83204        -0.64974
C         33.84086        42.44187        -0.31166
C         35.00806        44.28928         1.02176
C         33.83850        43.86892         0.16185
C         35.18719        45.43507         1.95160
C         37.75597        27.40111         1.68316
C         36.36699        26.89373         1.63102
C         37.69808        28.82287         1.09193
C         36.46249        29.68173         1.34814
C         37.69300        31.72436         0.46369
C         36.41576        31.03057         0.65964
C         37.69898        33.19411         0.41293
C         36.44965        33.83296        -0.16984
C         37.68956        36.02469        -0.33931
C         36.52463        35.33186        -0.36934
C         37.76628        37.39163        -0.98210
C         36.46226        38.13688        -0.96067
C         37.75396        40.32172        -0.51604
C         36.50167        39.65054        -1.14336
C         37.70074        41.67191         0.15567
C         36.33061        42.28135         0.30618
C         37.95609        44.38627         1.78347
C         36.07481        43.26312         1.20102
C         37.72930        45.72954         1.97252
C         36.31741        45.92949         2.12060
C         40.23666        24.44993         1.33809
C         39.42943        25.29525         1.73286
C         40.35051        27.49518         1.59392
C         39.08159        26.70864         1.85053
C         40.30350        28.87828         1.03389
C         38.97063        29.54847         0.78490
C         40.18837        31.65708         0.19938
C         38.96416        31.06803         0.92178
C         40.10931        33.07708        -0.37296
C         39.00201        33.91361         0.26148
C         40.26437        36.06504        -0.43904
C         38.99477        35.38970        -0.01851
C         40.13912        37.40381        -1.16141
C         38.98031        38.17557        -0.60492
C         40.28127        40.17785        -0.12740
C         38.98044        39.49836        -0.36134
C         40.28435        41.54202         0.48692
C         38.95060        42.19625         0.97740
C         40.35726        44.48527         1.12144
C         39.00166        43.77946         0.85452
C         40.18202        45.92785         1.56742
C         38.76466        46.68055         1.40855
C         40.08519        48.56336         2.39814
C         39.03112        47.97619         2.11061
C         42.61112        24.58253         1.11801
C         41.44380        23.76997         1.05604
C         42.85703        27.71957         1.72622
C         41.61293        27.15740         2.35612
C         42.81186        28.94597         1.16182
C         41.51910        29.74836         1.36735
C         42.75742        31.80559         0.52177
C         41.49365        31.00476         0.50059
C         42.78353        33.14923        -0.13048
C         41.47751        33.76442        -0.54562
C         42.74371        35.96179        -1.07883
C         41.45528        35.24465        -0.84046
C         42.71479        37.44691        -0.70486
C         41.50305        38.18364        -1.40205
C         42.77368        40.37613        -0.68865
C         41.47116        39.65990        -0.90578
C         42.80474        41.67988         0.06561
C         41.47682        42.46706         0.17357
C         42.91872        44.35883         1.07736
C         41.60450        43.56907         1.27957
C         43.10067        45.46644         1.82426
C         41.20613        46.54648         2.45877
C         42.73887        48.22719         2.73733
C         41.34163        47.90349         2.71038
C         43.43762        25.49350         1.13245
C         45.23147        27.32177         0.96279
C         44.03676        26.74991         1.70920
C         45.22378        28.70888         0.33528
C         43.91746        29.54467         0.30121
C         45.31275        31.80201         0.32644
C         44.03591        31.05680         0.57562
C         45.34409        33.14690         0.09315
C         44.04906        34.00345         0.02783
C         45.30790        35.99117        -0.89996
C         44.06085        35.12607        -1.13488
C         45.31112        37.34450        -0.79253
C         44.05542        38.14337        -0.98674
C         45.37863        40.34262        -0.57565
C         44.08984        39.64695        -0.88986
C         45.39779        41.77690        -0.28957
C         44.09676        42.44396         0.04915
C         45.30683        44.69498         0.24171
C         43.95336        43.96934         0.02430
C         45.25895        46.14985         0.76318
C         44.09232        46.55573         1.59364
C         43.84522        47.70014         2.50977
C         47.67317        27.55668         0.97292
C         46.62684        27.01077         1.32292
C         47.95455        28.83081         0.31667
C         46.53254        29.53435         0.01399
C         48.44270        32.14732         0.81159
C         46.31403        30.78673         0.86312
C         48.01947        33.39637         0.10393
C         46.61414        33.93364        -0.09701
C         47.86312        35.95432        -0.94212
C         46.56712        35.15669        -1.08165
C         47.87247        37.41959        -0.69503
C         46.54855        38.12557        -0.33973
C         47.84569        40.35085        -0.55395
C         46.54688        39.62315        -0.61906
C         47.86318        41.72505         0.03632
C         46.57710        42.42023         0.04932
C         47.79793        44.46237         1.02685
C         46.58333        43.89680         0.29504
C         47.62774        45.91238         1.15609
C         46.64031        46.61343         0.92256
C         50.56480        29.38506         0.82978
C         49.20195        29.66059         0.34209
C         50.04128        31.66369        -0.84981
C         49.07941        31.14008         0.02859
C         50.40705        33.10946        -0.56359
C         49.13582        33.87801        -0.82723
C         50.35788        35.96782        -1.89503
C         49.08614        35.22226        -1.46264
C         50.35423        37.31625        -1.12612
C         49.06632        38.15558        -1.32937
C         50.47902        40.26961        -0.44101
C         49.13353        39.63071        -0.84725
C         50.29908        41.43895         0.60332
C         49.05314        42.30657         0.40479
C         50.39738        44.19830         1.32946
C         49.05359        43.66094         1.06724
C         51.61415        30.01480         1.06746
C         52.84300        31.86955         0.19059
C         52.78849        30.79964         1.10560
C         52.79152        32.73421        -0.72399
C         51.69459        33.61498        -1.20073
C         52.78346        35.98952        -1.49587
C         51.69358        35.03710        -1.70206
C         52.79305        37.13165        -1.02835
C         51.63016        37.92956        -0.59298
C         52.84970        40.23407        -0.19939
C         51.67444        39.30082         0.05939
C         52.75333        41.39102         0.32872
C         51.69867        42.25769         0.59545
C         51.42987        43.56924         0.95322
O         36.08817        29.64508         2.75622
O         41.64238        26.45404         3.35168
O         44.11382        34.50454        -2.36189
O         48.81976        34.01874        -2.22813
O         32.26015        35.25015        -2.42745
O         40.61456        27.75656         0.17761
O         43.59461        41.77098         1.28116
O         38.35890        27.25226         2.98663
O         46.19344        44.61949        -0.91702
O         42.21329        45.68263         2.89035
O         50.75550        37.07874         0.24754
O         44.13466        38.96140        -2.18369
O         44.19767        46.90189         0.16008
O         41.97830        40.58760        -1.90768
O         46.48127        30.72566         2.07273
O         39.86601        36.10209         0.94983
O         40.83346        30.77379        -0.76876
O         32.32159        33.06865         1.65354
O         34.92285        44.66120        -0.39148
O         40.65997        45.57897         0.22261
O         45.07859        27.49343        -0.46555
O         47.40291        34.29351         1.08543
O         43.43292        31.60951         1.81104
O         33.45616        40.36978        -2.46040
O         42.29579        33.02735        -1.49262
O         38.09520        37.08617        -2.41376
O         48.81236        28.85651        -0.83969
O         38.18795        28.95136        -0.27183
O         48.12586        43.72327         2.20991
O         48.21795        36.49585         0.37565
O         35.50884        31.07596        -0.53980
O         40.61848        40.38070         1.30023
O         38.47171        33.71706         1.60768
O         33.88611        30.94974         2.66208
O         51.67629        33.94486        -2.61799
O         36.97909        43.50507         2.25082
O         41.86674        35.61958        -2.18763
O         38.07602        41.55618        -1.25053
O         48.50760        40.45184        -1.89656
O         39.59174        37.08472        -2.50685
O         39.61594        32.94299        -1.72480
H         40.27707        32.41154        -2.22443
O         41.72656        38.24352        -2.79411
H         41.76729        37.32529        -3.14665
O         43.96389        34.72399         1.27761
H         43.96704        34.07430         2.01453
O         38.60174        44.14732        -0.48324
H         39.36431        43.92879        -1.07711
O         43.44215        29.49423        -1.05718
H         43.44347        28.55672        -1.35136
O         50.08849        40.97409         1.92462
H         50.84478        40.39773         2.19864
O         48.31580        32.12246         2.11047
H         47.83989        32.94302         2.39395
O         46.56811        34.70501        -2.42750
H         45.60489        34.51780        -2.70330
O         31.61264        38.27913        -3.16232
H         31.78016        37.38117        -3.51978
O         46.44896        38.11641         1.11581
H         46.94611        37.32215         1.43203
O         32.77446        37.70845         0.31279
H         31.93661        37.38452         0.70931
O         50.55446        33.25715         0.87079
H         51.37068        32.79126         1.16717
O         43.49709        44.31495        -1.28842
H         43.43023        45.29354        -1.34278
O         41.43179        30.06313         2.76243
H         42.15838        30.69039         2.98185
O         41.54505        42.96200         2.56292
H         42.31465        42.35384         2.64980
O         36.41140        33.26982        -1.49652
H         35.94369        33.89074        -2.11010
O         35.52461        42.25696        -1.98671
H         35.56975        43.23961        -1.98248
O         30.96799        39.49375         0.17560
H         30.13858        38.96646         0.19926
O         48.81696        38.15086        -2.73542
H         48.44974        39.03115        -2.99042
O         34.16780        37.95532        -3.01233
H         34.84447        38.59022        -3.34108
O         30.35091        34.17976         0.54160
H         30.37900        33.47951         1.23186
O         42.48254        37.54255         0.71667
H         43.08000        36.91914         1.18599
O         39.13726        31.28754         2.34729
H         38.87931        32.22478         2.53839
O         35.26365        33.84507         1.93678
H         34.45644        33.55330         2.41731
O         44.43056        26.48732         3.04861
H         43.61870        26.24515         3.55726
O         50.30115        36.21193        -3.28235
H         50.09183        35.36850        -3.73792
O         36.54412        39.84476        -2.56422
H         36.59082        40.81963        -2.72353
O         50.65596        30.96402        -1.78012
H         50.28197        30.05541        -1.83068
O         35.05908        39.92926         0.80194
H         34.48362        39.13738         0.89600
O         41.47986        22.46488         0.75635
H         42.39578        22.16873         0.58611
O         38.49190        46.91649         0.04804
H         38.51323        46.05054        -0.42988
O         38.80849        41.86232         2.34945
H         39.38803        41.08810         2.54015
O         35.46352        35.57345        -2.48197
H         36.23344        36.07224        -2.84078
O         53.62804        30.73858         2.18830
H         54.36552        31.36895         2.06805
O         46.50681        29.90627        -1.34982
H         46.48898        29.09587        -1.90150
O         50.99379        40.82682        -1.65874
H         50.23532        41.15549        -2.19432
O         41.16897        43.09966        -1.07983
H         41.37932        42.45611        -1.80134
O         51.66443        39.05956         1.46245
H         51.35102        38.14077         1.62850
