         244
 CSIRO Nanostructure Databank - Neutral Graphene Oxide Data Set
C          1.30435         2.01407         0.19968
C          1.20976         3.44798         0.29208
C          2.44286         1.29044        -0.05555
C          2.22759         4.29230         0.73836
C          1.17911         6.40753         0.07616
C          1.18765         7.78860        -0.08891
C          2.34733         5.66905         0.30403
C          2.41303         8.50904        -0.20924
C          1.24588        10.69053         0.19343
C          1.27245        12.05340         0.42704
C          2.42800         9.97245        -0.11063
C          2.48192        12.78514         0.39910
C          1.31768        14.97493         0.77807
C          1.32888        16.35910         0.79833
C          2.49626        14.23105         0.52322
C          2.50953        17.07464         0.49170
C          2.54707        18.51981         0.60812
C          3.75758         1.86410        -0.29712
C          3.89195         3.21719        -0.86264
C          4.90413         1.23568         0.13786
C          4.87106         4.05208        -0.39122
C          3.70655         6.34131         0.15437
C          3.60803         7.78296        -0.32176
C          4.79644         5.53518        -0.61809
C          4.80780         8.48195        -0.78493
C          3.64717        10.68977        -0.13065
C          3.69248        12.08408         0.14013
C          4.85993        10.01490        -0.61529
C          4.95964        12.78362         0.11065
C          3.71301        14.93085         0.29986
C          3.68746        16.34742         0.20908
C          4.96580        14.21528         0.16103
C          4.89119        17.05887        -0.23214
C          3.67975        19.24133         0.41506
C          4.90018        18.61836        -0.11636
C          6.15546         1.94919         0.17408
C          6.10988         3.46665         0.23369
C          7.36148         1.33332         0.36459
C          7.34867         4.07938        -0.47580
C          6.08184         6.25640        -0.84767
C          6.11768         7.75717        -0.93066
C          7.37327         5.61435        -0.31892
C          7.41693         8.50760        -0.85444
C          6.16932        10.67148        -0.42467
C          6.16694        12.04389        -0.05564
C          7.39198         9.96649        -0.56356
C          7.45997        12.70550         0.12431
C          6.17218        14.95209         0.02531
C          6.17899        16.35989        -0.18272
C          7.46450        14.27581         0.12856
C          7.38148        17.08506        -0.30261
C          6.19994        19.24612         0.02087
C          7.38559        18.53492        -0.22250
C          8.61293         2.07248         0.33155
C          8.63872         3.41342        -0.04882
C          9.83497         1.37905         0.58280
C          9.96429         4.00183        -0.50219
C          8.65831         6.28167        -0.79264
C          8.69482         7.76132        -0.66417
C          9.95749         5.52649        -0.67430
C          9.89662         8.42711        -0.63695
C          8.63533        10.64287        -0.53461
C          8.68676        12.02728        -0.29766
C          9.88996         9.90605        -0.96898
C          9.90672        12.76846        -0.43594
C          8.67477        14.96285        -0.30373
C          8.63924        16.38592        -0.42950
C          9.90501        14.23044        -0.44549
C          9.83485        17.11851        -0.58678
C          8.62657        19.22393        -0.26500
C          9.84742        18.54338        -0.46453
C         11.06501         2.04898         0.61322
C         11.11846         3.47333         0.31140
C         12.27891         1.34898         0.79510
C         12.26314         4.21475         0.51644
C         11.17356         6.29947        -0.30597
C         11.15086         7.73403        -0.41998
C         12.28601         5.62908         0.22685
C         12.35123         8.49145        -0.24105
C         11.14662        10.63094        -0.57343
C         11.11304        12.05001        -0.58192
C         12.34814         9.93169        -0.37569
C         12.39142        12.75962        -0.73161
C         11.09028        14.94504        -0.62887
C         11.10094        16.40954        -0.95766
C         12.38180        14.26798        -0.76764
C         12.35486        17.12651        -0.51942
C         11.08516        19.24134        -0.46988
C         12.33042        18.55181        -0.42998
C         13.50103         2.04794         0.86770
C         13.40483         3.52039         1.25927
C         14.70276         1.37332         0.68075
C         14.75396         4.23414         1.17200
C         13.48061         6.42630         0.58926
C         13.55322         7.83758         0.14899
C         14.73262         5.73460         1.03320
C         14.77643         8.53808         0.25484
C         13.58674        10.66118        -0.19419
C         13.62348        12.06917        -0.33337
C         14.79839         9.95974         0.04279
C         14.80918        12.80969        -0.10394
C         13.61365        14.99229        -0.41057
C         13.57450        16.42174        -0.34633
C         14.80353        14.27780        -0.13485
C         14.78919        17.14386        -0.13112
C         13.54452        19.25900        -0.25871
C         14.77946        18.57948        -0.12643
C         15.97805         2.02300         0.63140
C         16.02420         3.48646         0.90754
C         17.13466         1.35951         0.31946
C         17.21634         4.20866         0.38655
C         16.08839         6.42472         0.96051
C         16.01929         7.87156         0.49972
C         17.09730         5.68906         0.07329
C         17.23509         8.53996         0.35483
C         16.01705        10.68118         0.14653
C         15.99847        12.09300         0.15947
C         17.27529         9.97195         0.25028
C         17.24730        12.80137         0.48638
C         15.98593        15.00310         0.13599
C         16.01226        16.43617         0.08474
C         17.22824        14.29414         0.49995
C         17.21661        17.16113         0.28437
C         16.00195        19.27733         0.01739
C         17.22243        18.58523         0.21284
C         18.47562         2.05157         0.38590
C         18.33707         3.52456         0.05955
C         19.53913         1.38035        -0.45047
C         19.47454         4.28307        -0.59038
C         18.43231         6.40708         0.16102
C         18.48436         7.77157         0.28539
C         19.69336         5.58713         0.17671
C         19.76105         8.46363         0.18580
C         18.49427        10.66449         0.26107
C         18.53514        12.08913         0.32373
C         19.81576         9.95399         0.44684
C         19.74530        12.79707         0.31000
C         18.52650        15.01941         0.21903
C         18.46466        16.45682         0.77095
C         19.76411        14.25546         0.74146
C         19.75001        17.18384         0.45296
C         18.45872        19.28427         0.30944
C         19.70838        18.60474         0.34764
C         20.62026         2.05199        -0.90539
C         20.74820         3.48938        -0.74968
C         21.92672         4.17207        -0.87729
C         20.92539         6.34026        -0.28061
C         20.93461         7.78499        -0.09822
C         21.99434         5.60571        -0.72854
C         22.18015         8.54292        -0.21951
C         20.89802        10.65862        -0.38349
C         20.97654        12.13272         0.00033
C         22.19568         9.88778        -0.30428
C         22.13053        12.88199        -0.13376
C         21.01539        15.01598         0.35741
C         20.97642        16.48422         0.36888
C         22.13428        14.30544         0.00102
C         22.16636        17.24107         0.23724
C         20.92830        19.32353         0.23186
C         22.13601        18.63798         0.19076
O         15.63232         3.83465         2.28876
O         13.86431         6.32505         2.04886
O          4.60121         9.38376        -1.91168
O          9.34525         5.83271        -1.99961
O          6.81306         8.16593        -2.15911
O         17.16486        13.56772         1.77943
O          4.70331        17.91478        -1.39212
O         12.51130        13.48032        -2.02424
O          5.23641         5.82044        -1.98306
O          7.60849        13.47607         1.35258
O         13.01710         3.53147         2.65811
H         13.84973         3.48199         3.17983
O         18.93283         1.95065         1.77281
H         18.39284         2.57105         2.30781
O         10.21470         3.43154        -1.83306
H          9.83506         4.05976        -2.49022
O         18.67625        15.09392        -1.21759
H         17.95443        15.65361        -1.57506
O         20.19082        10.12364         1.84516
H         19.47926         9.73946         2.39869
O         16.62550         6.43948         2.30398
H         15.86284         6.53749         2.91547
O         16.61379         5.79968        -1.29187
H         17.35414         5.48694        -1.87101
O          9.87809         9.95397        -2.43825
H          9.09052         9.45322        -2.74531
O          7.39400         5.99925         1.07987
H          6.83171         5.35724         1.59075
O          3.15338         3.82766         1.63262
H          2.97786         2.87676         1.79498
O          7.18825         3.79857        -1.88593
H          7.80770         4.37626        -2.38524
O         19.04765         4.64631        -1.94529
H         19.11042         3.84268        -2.50355
O         19.72780        14.22087         2.20129
H         18.88674        13.75209         2.44345
O          2.97207         3.63060        -1.77151
H          3.25598         4.49313        -2.14047
O         18.33364        16.43551         2.21757
H         19.03531        15.82501         2.56162
O          4.31932         6.39731         1.49771
H          3.65458         6.77937         2.10960
O         19.92178         5.20886         1.56783
H         19.92152         6.02690         2.10755
O          6.12682         3.79856         1.66185
H          5.19172         3.95268         1.93174
O         11.14352        16.43007        -2.45210
H         11.73351        15.69751        -2.73842
O         20.44984        10.61864        -1.76651
H         21.11443        11.08237        -2.31673
H          0.35191         1.45757         0.23898
H          0.34085         3.90566        -0.20455
H          2.38044         0.19119        -0.01602
H          0.20658         5.90474         0.18169
H          0.22626         8.31444        -0.12206
H          0.27767        10.17525         0.23326
H          0.32296        12.56739         0.62605
H          0.37274        14.45401         0.98171
H          0.40809        16.91298         1.03089
H          1.63529        19.02170         0.96535
H          4.86218         0.20173         0.51430
H          3.70407        20.31506         0.65403
H          7.41540         0.23688         0.44887
H          6.25525        20.29987         0.33292
H          9.80245         0.30128         0.80064
H          8.63058        20.31923        -0.16227
H         12.27785         0.24875         0.75584
H         11.07995        20.33785        -0.38333
H         14.67052         0.28987         0.48463
H         13.52725        20.35817        -0.21865
H         17.10696         0.27418         0.13511
H         16.00312        20.37698        -0.01129
H         19.48111         0.28774        -0.57044
H         18.45371        20.38304         0.25096
H         21.44537         1.50554        -1.39020
H         22.85794         3.62502        -1.08816
H         22.94702         6.09730        -0.97429
H         23.12921         7.98684        -0.23172
H         23.15608        10.41327        -0.41388
H         23.07584        12.39903        -0.41960
H         23.06946        14.82686        -0.24884
H         23.13942        16.73379         0.19084
H         20.90643        20.42082         0.16900
H         23.07937        19.19566         0.10624
