         618
 CSIRO Nanostructure Databank - Neutral Graphene Oxide Data Set
C         23.89753        69.45398        -3.78093
C         23.86066        70.88100        -3.74168
C         23.06361        71.62031        -4.65170
C         23.92212        73.70106        -3.74368
C         23.06328        73.01115        -4.60440
C         26.36654        65.34668        -2.56969
C         26.07507        66.66921        -2.37463
C         24.78039        67.22100        -2.96029
C         25.35026        69.39182        -1.83236
C         24.67738        68.72480        -2.89781
C         25.25389        70.79828        -1.76316
C         24.64358        71.58158        -2.76549
C         25.85814        73.80260        -2.29280
C         24.79345        73.02708        -2.85187
C         28.62000        61.19979        -1.24164
C         28.52074        62.60364        -1.15460
C         27.49399        63.28937        -1.84839
C         28.36297        65.43564        -1.06939
C         27.42329        64.68325        -1.83214
C         28.31079        66.95102        -1.18867
C         26.87392        67.45272        -1.45122
C         28.16671        69.91842        -0.40414
C         26.36319        68.67848        -1.07055
C         28.19327        71.26045        -0.89563
C         27.04770        71.98633        -1.09927
C         28.26907        74.00633        -1.63922
C         27.04304        73.30482        -1.69463
C         30.80464        56.92239        -0.20938
C         30.78070        58.33653        -0.14990
C         29.79649        59.09859        -0.82188
C         30.68317        61.25107         0.08142
C         29.69357        60.50824        -0.64967
C         30.60705        62.64857         0.16379
C         29.50989        63.34997        -0.43672
C         30.51662        65.53743         0.17873
C         29.42283        64.77838        -0.40407
C         30.46334        66.95637         0.15696
C         29.11273        67.63236        -0.05155
C         30.56170        69.78487        -0.32619
C         29.28669        69.12055        -0.30978
C         30.66384        71.13677        -0.77685
C         29.48317        71.79480        -1.45373
C         30.73194        73.93490        -1.40302
C         29.50750        73.31515        -1.41643
C         33.08696        52.70538         0.91995
C         33.04760        54.11283         0.91935
C         31.94592        54.77350         0.32769
C         32.80233        56.86664         1.22180
C         31.83485        56.17309         0.41605
C         32.48311        58.21418         1.53419
C         31.67827        59.02471         0.74440
C         32.74624        61.28074         1.60161
C         31.93733        60.51846         0.51760
C         32.84931        62.76433         1.23990
C         31.72151        63.41597         0.71055
C         32.81845        65.58467         1.09636
C         31.68957        64.84657         0.63486
C         32.72593        67.05163         1.15025
C         31.59482        67.72193         0.49458
C         32.92811        69.85283         0.37117
C         31.69463        69.12191         0.21155
C         33.01807        71.18939        -0.13980
C         31.88044        71.80080        -0.74790
C         33.23476        73.88394        -1.12606
C         31.99815        73.11743        -1.48375
C         35.36418        48.39852         1.45104
C         35.28275        49.77735         1.88742
C         34.16904        50.59475         1.42949
C         35.36878        52.72984         1.85360
C         34.19812        51.99293         1.43043
C         35.38363        54.13638         1.76133
C         34.17333        54.86337         1.42922
C         35.28518        57.07303         1.78137
C         34.06776        56.27651         1.57644
C         35.37238        58.46923         1.88129
C         34.24303        59.31153         2.11284
C         35.33077        61.42123         1.77956
C         34.12941        60.65400         1.77004
C         35.24731        62.82182         1.86349
C         34.02758        63.50580         1.54275
C         35.22475        65.72052         1.72746
C         34.01154        64.93948         1.46948
C         35.22944        67.11134         1.66010
C         33.98595        67.86088         1.45176
C         35.29121        69.96757         1.06514
C         34.07118        69.25129         0.95417
C         35.32910        71.32785         0.62831
C         34.23168        71.92238        -0.00876
C         35.53901        74.03980        -0.31321
C         34.31186        73.30846        -0.48542
C         37.79534        44.17866         1.03672
C         37.75091        45.60606         1.07357
C         36.56778        46.30007         1.27340
C         37.83804        48.41478         1.67187
C         36.56603        47.71154         1.48500
C         37.86936        49.77797         2.00465
C         36.61855        50.49853         2.26336
C         37.90443        52.76721         2.15678
C         36.58073        52.00801         2.27331
C         37.86043        54.19908         1.80271
C         36.62594        54.86289         1.79799
C         37.86698        57.06735         1.52465
C         36.56234        56.32525         1.54682
C         37.89667        58.53503         1.72490
C         36.60418        59.24927         1.41084
C         37.75960        61.37031         2.09348
C         36.59093        60.70149         1.85783
C         37.75059        62.81724         2.38512
C         36.43979        63.58853         2.24366
C         37.67517        65.75347         2.13468
C         36.45684        65.04017         2.01454
C         37.72572        67.17640         2.03767
C         36.42014        67.92202         2.11271
C         37.71913        69.97888         1.56331
C         36.49587        69.31505         1.53174
C         37.75307        71.44029         1.41206
C         36.50162        72.15412         0.94546
C         37.88817        74.15951         0.45978
C         36.64613        73.49310         0.33310
C         39.72446        39.70565         0.55523
C         39.54749        41.08949         0.11348
C         38.95911        42.04972         0.87720
C         40.06281        44.27342         0.15287
C         38.93060        43.49976         0.63599
C         40.15189        45.64174         0.44278
C         38.99436        46.33706         0.97065
C         40.37566        48.33454         1.50660
C         39.03291        47.68573         1.32840
C         40.33829        49.83979         1.45912
C         39.19521        50.50898         2.19736
C         40.32012        52.69182         1.72851
C         39.14881        52.00712         1.93583
C         40.33494        54.13979         1.64120
C         39.12174        54.87226         1.63569
C         40.31216        57.01728         1.79382
C         39.13584        56.32245         1.68094
C         40.33712        58.44561         2.29721
C         39.05201        59.18709         1.98085
C         40.16525        61.35445         1.33508
C         39.09589        60.67138         2.28295
C         40.22136        62.87351         1.57514
C         38.99016        63.60095         2.07319
C         40.04426        65.82433         2.56684
C         38.90616        65.06220         2.37665
C         40.19822        67.18079         2.17471
C         38.95012        67.87216         1.99373
C         40.20566        69.97803         1.78150
C         38.97292        69.29574         1.78390
C         40.20420        71.41205         1.56863
C         39.04617        72.11996         1.28602
C         40.29432        74.22748         0.97447
C         39.06484        73.53028         0.94148
C         42.49021        35.74921        -0.28984
C         42.41602        37.13917        -0.38477
C         41.04844        37.69446        -0.52556
C         42.56725        40.10528        -1.22325
C         40.51506        38.78786        -0.00225
C         42.42433        41.54427        -0.87952
C         41.23790        42.19065        -0.90284
C         42.38320        44.44674        -0.96747
C         41.13043        43.66268        -0.67473
C         42.52856        45.81406        -0.41435
C         41.37581        46.40994         0.21419
C         42.68660        48.47116         0.53928
C         41.46725        47.73018         0.66192
C         42.72253        49.82969         0.90615
C         41.51848        50.52392         1.26715
C         42.83063        52.69544         1.29374
C         41.63008        51.93532         1.81122
C         42.80943        54.14807         1.31631
C         41.58996        54.82530         1.50768
C         42.80559        57.07520         1.25794
C         41.54680        56.30118         1.44228
C         42.87941        58.54535         1.55714
C         41.60254        59.26172         1.91308
C         42.66727        61.36749         0.81360
C         41.52824        60.70809         1.52693
C         42.65334        62.81723         0.83447
C         41.58398        63.47445         1.51291
C         42.81675        65.62752         1.47700
C         41.85411        64.75179         2.01227
C         42.71268        67.08015         1.60570
C         41.47143        67.79743         1.91856
C         42.69127        69.92367         1.64991
C         41.46527        69.23738         1.80090
C         42.74706        71.38451         1.81124
C         41.44531        72.17411         1.75398
C         42.73607        74.24762         1.36802
C         41.49916        73.59500         1.35698
C         44.98913        33.01960         0.28033
C         43.77499        33.66474         0.05537
C         44.92019        35.84271         0.03555
C         43.72124        35.07857        -0.07036
C         44.87003        37.26369        -0.08017
C         43.62095        37.90282        -0.30983
C         44.89147        40.16493        -0.25695
C         43.58531        39.37787        -0.38945
C         44.93530        41.57306        -0.68479
C         43.65260        42.34728        -0.50301
C         44.93410        44.37023        -1.17431
C         43.62741        43.63161        -1.33251
C         44.89177        45.84674        -1.22628
C         43.72771        46.50727        -0.55552
C         45.07955        48.54530        -0.09895
C         43.86280        47.84238        -0.03219
C         45.21449        49.86642         0.45904
C         44.04168        50.50248         1.19225
C         45.27383        52.74868         0.97728
C         43.99614        52.01427         1.05959
C         45.24464        54.20942         0.79760
C         44.04781        54.86124         1.09534
C         45.27331        57.07042         0.65663
C         44.09023        56.32252         1.21924
C         44.97051        58.41944         0.00987
C         43.99386        59.26675         0.84136
C         44.92371        61.38707        -0.20695
C         43.80743        60.68383         0.45377
C         44.96353        62.89985        -0.08410
C         43.82299        63.55735         0.56527
C         45.05852        65.67493         0.44010
C         43.88847        64.96268         0.79671
C         44.98518        67.13868         0.50716
C         43.84155        67.81099         1.17251
C         45.13250        69.94701         1.19883
C         43.90042        69.23530         1.32426
C         45.18162        71.38548         1.35152
C         43.98194        72.11171         1.51990
C         45.21884        74.20729         1.43358
C         43.97231        73.53367         1.47580
C         46.17451        33.74925         0.37056
C         47.36841        35.90456         0.27722
C         46.16829        35.16232         0.24149
C         47.36640        37.30590         0.09523
C         46.11444        38.00974        -0.04820
C         47.36384        40.11424        -0.42124
C         46.14638        39.40662        -0.22184
C         47.37927        41.49441        -0.82029
C         46.11542        42.21518        -0.97185
C         47.37440        44.34581        -1.58196
C         46.10631        43.67011        -1.19718
C         47.46740        45.82327        -1.54735
C         46.17580        46.58737        -1.41323
C         47.55890        48.47046        -0.55116
C         46.18540        48.07131        -1.03034
C         47.66908        49.85705         0.03542
C         46.41354        50.55968         0.35020
C         47.66651        52.77481         0.04914
C         46.54110        52.00506         0.65198
C         47.60252        54.15152        -0.06666
C         46.42805        54.90383         0.33732
C         47.57909        57.04986        -0.24551
C         46.40951        56.29760         0.14743
C         47.55769        58.49033        -0.27143
C         46.25224        59.17421        -0.35900
C         47.50224        61.42001        -0.33096
C         46.22721        60.67619        -0.44946
C         47.49019        62.84993        -0.19721
C         46.27194        63.58440        -0.07577
C         47.51527        65.71014         0.05551
C         46.26833        64.99103         0.10808
C         47.53089        67.13042         0.14026
C         46.26883        67.90496         0.25974
C         47.55516        69.95215         0.74172
C         46.34978        69.29172         0.78317
C         47.71172        71.31417         1.36950
C         46.41522        72.08844         1.32919
C         47.72330        74.23987         1.58634
C         46.42011        73.49358         1.42608
C         48.57829        38.03085         0.05723
C         49.82011        40.13445        -0.29620
C         48.60334        39.41170        -0.22768
C         49.83568        41.49239        -0.64674
C         48.60610        42.15683        -0.98224
C         49.97802        44.25430        -1.59068
C         48.65826        43.52861        -1.53725
C         50.01120        45.76349        -1.79105
C         48.68030        46.49259        -1.67440
C         49.68827        48.78838        -1.66972
C         48.66569        47.91240        -1.37444
C         50.07381        49.87198        -0.69888
C         48.86959        50.65962        -0.27413
C         49.97982        52.72088        -1.09368
C         48.82854        52.02172        -0.38320
C         50.03102        54.20281        -0.80471
C         48.69055        54.89793        -0.82524
C         49.98778        57.09346        -0.69959
C         48.76842        56.37240        -0.52306
C         49.98748        58.54821        -0.59593
C         48.73162        59.24032        -0.43058
C         49.95970        61.41645        -0.32721
C         48.71604        60.70084        -0.38734
C         49.96661        62.84028        -0.20843
C         48.73450        63.55728        -0.14668
C         49.98194        65.69479        -0.00978
C         48.74255        64.98854        -0.04315
C         49.97906        67.12283         0.04145
C         48.74168        67.82495         0.10777
C         50.01999        70.00280         0.14374
C         48.68997        69.32721        -0.02882
C         50.03408        71.44159         0.33750
C         48.88656        72.10466         0.84009
C         50.08426        74.22168         0.77203
C         48.91423        73.50153         1.01995
C         51.06084        42.22690        -0.62325
C         52.34546        44.28335        -0.72988
C         51.15273        43.57562        -0.97514
C         52.45229        45.68141        -0.92114
C         51.32589        46.41952        -1.43870
C         52.66972        48.50431        -1.17453
C         51.57532        47.75222        -1.70565
C         52.61002        49.91352        -0.98752
C         51.33497        50.64606        -1.00413
C         52.50682        52.78971        -0.50745
C         51.29483        52.00026        -0.90209
C         52.51060        54.17663        -1.13828
C         51.20435        54.91597        -0.84470
C         52.45207        57.08099        -1.00220
C         51.18368        56.36328        -0.84689
C         52.45307        58.59134        -0.87571
C         51.18287        59.28415        -0.63417
C         52.43244        61.40988        -0.27598
C         51.20360        60.70637        -0.39811
C         52.44665        62.83829        -0.12940
C         51.21114        63.55250        -0.13174
C         52.46292        65.67902         0.07495
C         51.22549        64.97735        -0.03524
C         52.46801        67.13674         0.06582
C         51.20903        67.84728        -0.02432
C         52.47324        69.95335        -0.46161
C         51.18275        69.28038        -0.05768
C         52.43958        71.48291        -0.35489
C         51.22355        72.17442         0.10898
C         52.52155        74.28746         0.37861
C         51.27707        73.56889         0.37897
C         53.68531        46.34999        -0.67416
C         55.01067        48.48187        -0.46079
C         53.81554        47.75204        -0.76468
C         55.02713        49.86576        -0.49829
C         53.81220        50.60620        -0.69514
C         55.01086        52.76457        -0.64125
C         53.81766        52.04259        -0.65766
C         54.97513        54.22509        -0.71088
C         53.78731        54.90906        -0.76934
C         54.97783        57.11510        -0.80276
C         53.67608        56.38333        -0.43920
C         54.93276        58.59291        -0.49117
C         53.71078        59.29041        -0.54367
C         54.91732        61.38975        -0.22379
C         53.69332        60.69190        -0.31705
C         54.96211        62.80028         0.29173
C         53.66745        63.55629         0.06734
C         54.99440        65.60322         0.63880
C         53.67885        64.95342         0.18728
C         54.96682        67.18784         0.64805
C         53.65932        67.83502         0.23272
C         54.95237        70.04165         0.00318
C         53.63851        69.34825         0.32768
C         54.98837        71.44830        -0.03682
C         53.73944        72.22284        -0.19278
C         54.99956        74.29005         0.35457
C         53.74333        73.64240         0.22129
C         56.30012        50.60436        -0.14570
C         57.44621        52.80367        -0.21406
C         56.27154        52.09941        -0.39959
C         57.52400        54.22870        -0.32653
C         56.30596        54.95452        -0.85288
C         57.47134        57.11216        -0.15836
C         56.16989        56.33511        -0.17955
C         57.43475        58.60399        -0.34728
C         56.13923        59.30494        -0.47403
C         57.36536        61.45225        -0.69037
C         56.13797        60.71651        -0.43000
C         57.34765        62.83222        -0.65007
C         56.18025        63.57275        -0.19855
C         57.39319        65.69882        -0.43286
C         56.17885        64.95190        -0.10888
C         57.40402        67.13275        -0.20771
C         56.06889        67.82533        -0.22354
C         57.37903        70.00880         0.10037
C         56.15297        69.31867         0.01814
C         57.41427        71.41306         0.10430
C         56.21149        72.14695         0.03561
C         57.45518        74.26647         0.39770
C         56.22058        73.60221         0.21425
C         58.70246        54.94018        -0.21496
C         59.89707        57.13172        -0.44373
C         58.74675        56.38275        -0.33462
C         59.88466        58.57368        -0.65306
C         58.65773        59.28268        -0.73527
C         59.82815        61.39639        -1.47746
C         58.49228        60.65726        -1.34878
C         59.80176        62.90596        -1.49741
C         58.53108        63.60460        -1.10468
C         59.80877        65.78454        -1.06797
C         58.55365        65.05051        -0.81787
C         59.82738        67.25104        -0.64310
C         58.57563        67.83848        -0.16186
C         59.90322        69.94676         0.30073
C         58.60781        69.20389         0.46499
C         59.86525        71.39602         0.69863
C         58.73676        72.13207        -0.03345
C         59.90867        74.23996         0.60324
C         58.69833        73.59331         0.37045
C         61.09456        59.27198        -0.78358
C         62.29791        61.50364        -0.84569
C         61.11972        60.68713        -1.15762
C         62.32779        62.87076        -1.00990
C         61.15603        63.64145        -1.58852
C         62.27484        65.74253        -0.77946
C         61.10143        65.06694        -1.04797
C         62.30061        67.16518        -0.45100
C         61.10919        67.88436        -0.30805
C         62.36374        69.96232         0.19343
C         61.10778        69.27372         0.08090
C         62.37568        71.39279         0.39478
C         61.16871        72.11507         0.50737
C         62.40264        74.21957         0.54278
C         61.17047        73.53539         0.56486
C         63.51898        63.60176        -0.75331
C         64.74967        65.70465        -0.55163
C         63.54318        65.00966        -0.72453
C         64.78864        67.11710        -0.37646
C         63.55132        67.83542        -0.26188
C         64.83058        69.90414         0.13527
C         63.57959        69.23804         0.01656
C         64.85058        71.32579         0.48472
C         63.60587        72.09469         0.44827
C         64.87606        74.21472         0.31308
C         63.63303        73.51725         0.48749
C         66.01152        67.81439        -0.30840
C         67.27895        69.94551        -0.24792
C         66.05492        69.21537        -0.09744
C         67.33058        71.34169        -0.20683
C         66.17267        72.09583         0.30678
C         67.25531        74.21095        -0.37176
C         66.08385        73.55182         0.08723
C         68.44917        72.09136        -0.65279
C         68.40509        73.48880        -0.70230
O         41.32579        44.36908        -1.97980
O         39.47812        60.86705         3.60506
O         41.99732        56.81130         0.07284
O         43.95843        40.00402         0.88553
O         45.11377        56.87158         2.09403
O         42.08579        71.87536         3.03562
O         50.69151        48.43511        -2.55169
O         46.23753        52.35050         2.04092
O         37.02609        63.22200         3.56613
O         41.14038        65.17885         3.12677
O         50.43589        48.88442         0.25574
O         41.85163        60.32661         2.88528
O         44.57688        62.23007        -1.34573
O         60.61426        60.88572        -2.58735
O         50.19503        44.84293        -2.91029
O         42.03933        39.59047        -2.19764
O         33.10888        58.72647         2.67332
O         40.07952        41.44101        -1.14232
O         55.18397        65.20857         1.99151
O         39.29763        63.51303         0.60661
O         26.93236        69.39351        -0.01518
O         52.56380        57.88676        -2.21616
O         25.82126        71.47191        -0.66752
O         45.25552        46.38924        -2.55620
O         58.88663        63.36024        -2.54561
O         36.85427        72.12515         2.36709
O         41.89329        51.65034         3.20333
O         45.31099        67.74392        -0.82235
O         47.80506        48.61728         0.85533
O         59.73041        66.85346        -2.06905
O         35.73265        49.96199         3.28065
O         32.97372        67.62712         2.48765
O         37.24915        52.53187         3.45614
O         57.53913        57.98175         1.02439
O         53.08944        72.08461        -1.52896
O         44.03560        59.02959         2.28235
O         46.13422        59.84548        -1.66766
O         47.91348        43.68774        -2.78298
O         65.72185        71.66102         1.62217
O         37.19683        56.68787         0.24425
O         48.36299        69.58560        -1.44926
H         49.05095        69.14973        -1.99694
O         44.19317        50.23753         2.62200
H         43.43379        50.72669         3.06724
O         56.59479        55.02995        -2.26555
H         55.91673        55.60611        -2.69428
O         52.56633        53.99165        -2.57722
H         52.52617        54.87163        -3.00602
O         55.10325        62.62314         1.73241
H         55.15325        63.55923         2.10766
O         57.42846        50.00583        -0.79813
H         57.33165        50.14282        -1.76277
O         59.53214        71.47060         2.13286
H         60.35105        71.28261         2.63923
O         32.80490        60.52540        -0.65933
H         32.32140        60.09596        -1.39670
O         39.56838        50.36107         3.60978
H         40.43260        50.88665         3.70380
O         43.56448        42.72612         0.89191
H         43.65540        41.89442         1.41509
O         36.17203        68.13805         3.55680
H         36.85429        68.76290         3.88404
O         53.39427        69.62281         1.73442
H         54.04258        69.05633         2.23328
O         53.39896        56.47151         0.98106
H         54.14785        56.03046         1.45566
O         58.02261        60.39599        -2.70808
H         58.82453        60.36281        -3.28010
O         48.23237        54.84421        -2.24920
H         48.74612        55.51645        -2.74735
O         31.99506        61.19924         2.82950
H         32.52648        61.59642         3.54997
O         32.12318        72.73857        -2.92374
H         32.99828        72.30808        -3.03478
O         43.54933        43.25815        -2.72123
H         42.71250        43.63147        -3.08516
O         47.63717        75.55641         1.03153
H         47.50969        75.47428         0.06442
O         36.48102        59.29862        -0.04168
H         36.68625        58.38561        -0.36682
O         40.36184        58.33421         3.74114
H         40.18886        59.26698         4.06534
O         39.79333        61.10493        -0.01887
H         39.26947        61.87968        -0.33384
O         55.90023        56.02672         1.21098
H         56.27224        56.77197         1.74221
O         29.03920        67.27369        -2.40995
H         28.60217        66.80384        -3.15146
O         61.44272        63.78767        -3.00111
H         60.58271        63.96873        -3.44538
O         55.58909        67.65505        -1.59091
H         56.29496        67.94192        -2.20829
O         28.36470        67.42041         1.16587
H         28.83982        67.85289         1.90518
O         49.68301        52.58505        -2.52144
H         48.96160        53.23363        -2.72290
O         55.18643        67.63438         2.00354
H         55.25383        66.76909         2.52200
O         52.65079        69.59808        -1.85124
H         52.99886        70.40395        -2.30514
O         59.07999        72.08449        -1.44650
H         58.40326        72.59299        -1.94028
O         40.76877        48.04194         2.89892
H         40.31318        48.72081         3.46912
O         58.49658        68.96553         1.91278
H         58.57197        69.85235         2.34516
O         29.54790        71.42426        -2.86606
H         30.39022        71.81345        -3.20983
O         48.02267        71.08926         2.79561
H         47.22483        70.70218         3.21505
O         55.09710        57.08511        -2.25237
H         54.29019        57.54379        -2.60770
O         44.29427        58.09084        -1.22221
H         44.56490        58.76083        -1.89424
O         46.00497        48.83209        -2.26137
H         45.44900        48.27062        -2.85397
O         52.35677        53.00972         0.93148
H         52.22765        52.13838         1.36324
O         24.58368        66.74091        -4.29185
H         25.26832        67.13769        -4.86773
H         23.97391        74.79802        -3.80457
H         25.87830        74.85994        -2.60563
H         28.29654        75.07713        -1.89308
H         30.80730        75.03165        -1.45948
H         33.31943        74.91695        -1.49646
H         35.60473        75.05272        -0.73781
H         37.96469        75.19709         0.10102
H         40.31650        75.28765         0.68152
H         42.77373        75.32989         1.17408
H         45.24785        75.30641         1.44671
H         47.89833        74.37583         2.69010
H         50.09350        75.30560         0.95832
H         52.50196        75.36033         0.62218
H         55.01884        75.36474         0.59140
H         57.44356        75.34482         0.62103
H         59.91792        75.32496         0.78934
H         62.41225        75.31963         0.54818
H         64.84472        75.31067         0.21704
H         67.24186        75.30355        -0.49294
H         23.32946        68.92670        -4.56105
H         22.43915        71.08649        -5.38156
H         22.42197        73.57934        -5.29280
H         25.71677        64.73701        -3.21394
H         23.93503        66.79778        -2.34655
H         27.86578        60.64054        -1.81436
H         26.75607        62.71227        -2.42473
H         30.04895        56.39664        -0.81012
H         29.04066        58.58511        -1.43358
H         32.22312        52.14373         0.53580
H         31.17380        54.18573        -0.18866
H         34.45409        47.89738         1.08964
H         33.31257        50.08335         0.96445
H         36.90380        43.61475         1.34690
H         35.60963        45.76109         1.29041
H         39.26782        39.46235         1.53432
H         38.44916        41.72076         1.79659
H         41.56611        35.15460        -0.34282
H         40.36290        37.05857        -1.12214
H         45.01484        31.92543         0.37929
H         42.84547        33.08350        -0.02557
H         47.13054        33.23115         0.53239
H         48.32614        35.38022         0.41091
H         49.52737        37.49636         0.21012
H         50.76770        39.61929        -0.08226
H         51.95943        41.72022        -0.23937
H         53.20760        43.73314        -0.32309
H         54.55097        45.74894        -0.35788
H         55.93035        47.93636        -0.20360
H         56.47377        50.45954         0.95925
H         58.35905        52.24383         0.04330
H         59.64678        54.40718        -0.02167
H         60.87382        56.62693        -0.48749
H         62.05021        58.75181        -0.62614
H         63.19019        60.98870        -0.45779
H         64.44423        63.04698        -0.53548
H         65.69547        65.14257        -0.54886
H         66.95257        67.26323        -0.45231
H         68.17795        69.38869        -0.55280
H         69.35098        71.56034        -0.98939
H         69.29004        74.03464        -1.05892
