         324
 CSIRO Nanostructure Databank - Neutral Graphene Oxide Data Set
C          1.26436         3.50186         0.48148
C          0.07975         4.26213         0.59566
C          1.06995         6.12424        -0.70359
C         -0.03124         5.52072         0.05228
C          1.09027         7.63545        -0.99206
C         -0.04440         8.47786        -0.60645
C          1.18155        10.58450        -0.90044
C          0.00148         9.84776        -0.60745
C          1.21231        12.00195        -0.89520
C          0.00730        12.74788        -1.00345
C          1.21651        14.84251        -0.72632
C          0.02230        14.12418        -0.99215
C          1.17312        16.25593        -0.48482
C          0.02401        17.03518        -0.78609
C          0.84950        18.88249         0.54738
C         -0.09637        18.34590        -0.36382
C          0.71925        20.22923         1.08427
C         -0.10900        21.22838         0.64222
C          1.13374        23.19077         1.61225
C         -0.00821        22.56419         1.17090
C          1.07966        25.40814         1.03694
C         -0.07115        26.20580         0.74634
C          1.17635        28.22189         0.08664
C         -0.04605        27.50107         0.26040
C          1.28147        29.62081         0.36582
C          3.63561         3.33935        -0.13953
C          2.42060         4.03977        -0.10944
C          3.72347         6.13496        -0.85847
C          2.37947         5.38371        -0.72616
C          3.71444         7.63246        -0.96060
C          2.41574         8.32631        -1.23517
C          3.71043        10.59919        -1.16990
C          2.41391         9.84197        -1.24729
C          3.68766        12.02348        -0.75486
C          2.46428        12.71957        -0.76057
C          3.65380        14.85643        -0.26621
C          2.44937        14.14389        -0.55767
C          3.59682        16.24142         0.16234
C          2.27388        16.85903         0.19872
C          3.83877        19.13295         1.27409
C          1.96561        18.07223         0.85727
C          3.77636        20.55958         1.30182
C          2.64863        21.29676         1.68392
C          3.63906        23.53436         1.16962
C          2.51169        22.71132         1.51908
C          3.60216        24.89669         0.69769
C          2.30921        25.48660         0.39424
C          3.65667        27.98861         0.21039
C          2.37891        27.51541        -0.14050
C          3.72593        29.40924         0.44368
C          2.52062        30.19123         0.50378
C          6.08117         3.19099        -0.33417
C          4.88618         3.99718        -0.25598
C          6.10809         6.22373        -0.16949
C          4.92599         5.43200        -0.36820
C          6.19508         7.54275        -0.92106
C          4.89144         8.32827        -0.87375
C          6.21159        10.54259        -0.63920
C          4.98362         9.80761        -1.04252
C          6.15807        11.99608        -0.52113
C          4.90897        12.71010        -0.51914
C          6.12729        14.84032        -0.19543
C          4.90092        14.13335        -0.31287
C          6.07075        16.35651        -0.28730
C          4.80773        16.98695         0.33313
C          6.10675        19.15249         0.36808
C          4.86921        18.37370         0.68691
C          6.16324        20.64307         0.52746
C          4.99900        21.34022         1.12247
C          6.14486        23.57555         0.63783
C          4.95597        22.87154         1.15062
C          6.09190        24.99372         0.44729
C          4.79976        25.67683         0.42824
C          6.07536        27.83956         0.23992
C          4.82771        27.13434         0.26833
C          6.14808        29.28078         0.29822
C          4.97041        30.03462         0.50842
C          8.61128         3.41331        -0.09149
C          7.27430         3.64776         0.23931
C          8.46966         6.41374         0.88942
C          7.17221         5.75238         0.57010
C          8.60751         7.73147         0.16844
C          7.44474         8.36159        -0.54973
C          8.65109        10.54816        -0.32243
C          7.40162         9.84632        -0.49797
C          8.62789        11.99694        -0.58273
C          7.35576        12.72816        -0.42179
C          8.62806        14.86439        -0.08135
C          7.36118        14.15048        -0.25177
C          8.57788        16.28617         0.18598
C          7.38229        16.98075         0.15374
C          8.68140        19.18785         0.69581
C          7.37004        18.38645         0.55409
C          8.69174        20.68319         0.72155
C          7.41572        21.41725         0.61744
C          8.63646        23.54249         0.48409
C          7.35512        22.80877         0.55215
C          8.60651        25.02947         0.37425
C          7.30286        25.71828         0.24998
C          8.52180        27.85869        -0.12019
C          7.31774        27.13797         0.12623
C          8.57140        29.28023        -0.14380
C          7.37518        29.96793         0.14778
C         11.01299         3.57329         0.17638
C          9.75175         4.22555         0.30172
C         11.00302         6.27584         1.17296
C          9.72629         5.58303         0.68873
C         11.03659         7.80683         0.95188
C          9.77935         8.55143         0.58975
C         11.09261        10.61375         0.16539
C          9.83511         9.91693         0.03969
C         11.11452        11.99410         0.02651
C          9.92890        12.74491        -0.38609
C         11.12257        14.84990        -0.01928
C          9.86173        14.19034        -0.09664
C         11.16281        16.30392         0.14890
C          9.85364        17.03332         0.38885
C         11.01735        19.19465        -0.28818
C          9.87122        18.49449         0.27082
C         11.17618        20.65463        -0.08939
C          9.97964        21.38053         0.41328
C         11.11645        23.51310        -0.31686
C          9.85591        22.80988         0.01156
C         11.13641        25.00313        -0.30940
C          9.86803        25.74047        -0.05704
C         10.97511        27.86634        -0.97320
C          9.72457        27.13214        -0.56107
C         11.01374        29.32013        -0.69546
C          9.80967        29.97182        -0.37435
C         13.47630         3.53721         0.24406
C         12.25494         4.22837         0.39091
C         13.51063         6.31252         0.76912
C         12.27413         5.61880         0.70286
C         13.54067         7.76426         0.72208
C         12.33080         8.49204         0.68285
C         13.57856        10.57419         0.19439
C         12.32545         9.87975         0.41782
C         13.57604        11.96050         0.07748
C         12.34689        12.73828         0.44505
C         13.57720        14.86439        -0.17657
C         12.34430        14.16737        -0.02253
C         13.58511        16.29004        -0.35993
C         12.37326        17.00381        -0.28482
C         13.55781        19.17561        -0.85315
C         12.28985        18.41122        -0.63398
C         13.59424        20.63078        -0.64075
C         12.35820        21.32365        -0.32512
C         13.59859        23.52515        -0.67572
C         12.43456        22.81127        -0.02128
C         13.60471        24.90513        -0.85763
C         12.31689        25.63330        -0.97984
C         13.56060        27.83678        -0.96804
C         12.28588        27.12394        -1.15248
C         13.51392        29.26116        -0.78916
C         12.26657        29.96152        -0.69119
C         15.91463         3.44577         0.39283
C         14.71834         4.18034         0.49644
C         15.98084         6.31798         1.20643
C         14.72704         5.59106         0.76176
C         16.01000         7.74969         0.72507
C         14.81575         8.43338         0.55248
C         16.04986        10.50408        -0.03216
C         14.83460         9.84946         0.20490
C         16.04657        11.87830        -0.56753
C         14.75607        12.67277        -0.39861
C         16.01957        14.84064        -0.25897
C         14.80670        14.14801        -0.27165
C         16.02460        16.26301        -0.35035
C         14.83828        16.97089        -0.50533
C         16.10106        19.21123        -0.60651
C         14.86811        18.42685        -0.79561
C         16.09483        20.60171        -0.71674
C         14.81501        21.29491        -0.73550
C         16.14266        23.53769        -0.96968
C         14.79543        22.75513        -0.95130
C         16.06345        24.99455        -0.79039
C         14.82397        25.66229        -0.93930
C         15.99602        27.83130        -0.66262
C         14.77402        27.11607        -0.88429
C         15.96663        29.26943        -0.58546
C         14.72867        29.95626        -0.64839
C         18.40699         3.44996        -0.03181
C         17.22033         4.07066         0.57880
C         18.49962         6.29016         0.53156
C         17.27782         5.54889         0.92110
C         18.53605         7.69665         0.55215
C         17.30495         8.50701         0.91998
C         18.52078        10.51548         0.05494
C         17.31570         9.87099         0.25085
C         18.64557        11.86912        -0.61021
C         17.33872        12.65553        -0.65952
C         18.57146        14.82107         0.00889
C         17.31933        14.13333        -0.39000
C         18.52859        16.28011         0.28758
C         17.27381        17.01615        -0.06325
C         18.65004        19.20946        -0.30782
C         17.35032        18.44777        -0.49650
C         18.54998        20.68591        -0.23742
C         17.34467        21.35927        -0.55191
C         18.49529        23.54851        -0.22604
C         17.34236        22.79650        -0.57014
C         18.47506        24.99444        -0.25350
C         17.26018        25.70458        -0.50913
C         18.42791        27.86964        -0.23620
C         17.22372        27.14086        -0.46942
C         18.39776        29.30405        -0.22623
C         17.17134        29.97831        -0.39474
C         19.56877         4.13647        -0.13647
C         20.86363         6.24298        -0.07690
C         19.65389         5.55510         0.15036
C         20.92075         7.62289         0.03521
C         19.75710         8.36931         0.32319
C         20.94619        10.56828         0.37563
C         19.77976         9.83152         0.28325
C         20.94352        11.99675         0.29588
C         19.82260        12.69081        -0.09019
C         21.00996        14.93641        -0.15242
C         19.77829        14.15051        -0.05657
C         21.02569        16.28108        -0.04559
C         19.85211        17.01189         0.56108
C         20.85526        19.29395         0.73303
C         19.80986        18.51722         0.28865
C         20.84160        20.70405         0.61941
C         19.71760        21.41226         0.16468
C         20.85439        23.62347         0.40114
C         19.70235        22.86468         0.12685
C         20.84057        25.01189         0.34216
C         19.66927        25.72506         0.02361
C         20.82632        27.94134         0.18448
C         19.65931        27.18353        -0.01028
C         20.79649        29.34576         0.17195
C         19.60729        30.02535        -0.02187
O          9.42912        12.42075        -1.73930
O          0.94050        24.50670         2.10312
O         17.59014        16.72534         1.35757
O          9.60513        21.15990         1.80570
O         18.25750        18.64759        -1.62972
O         10.00377        27.41489        -1.97284
O          8.57750         7.75526        -1.28081
O         15.18860        12.12582        -1.70937
O          1.54540        20.58237         2.18136
O          5.30899        22.07697         2.34526
O         10.22568         8.49224         1.97788
O         10.90583        25.63585         0.98888
O         10.26953        22.99001        -1.38634
O         17.39158        13.57872        -1.78664
O          5.97435        20.01658        -0.81124
O          2.30117        26.27091        -0.78564
O          4.53409        10.32812        -2.35089
O         11.29687        18.72356        -1.67174
O          7.02682         4.58096         1.30236
O          7.98962        18.61519         1.85810
O          8.82904        24.37009         1.67429
O         10.70847        16.63677         1.53769
O         15.48912        23.08957        -2.19190
O         12.18848        26.21273        -2.30736
O         14.22407        18.75059        -2.08472
O          2.80307        18.44983         1.91888
O         17.51033         4.55691         1.97628
O          2.33952         9.07210        -2.49236
O          3.07625         5.46447        -1.98886
O          0.71286         6.65535        -2.01617
O         17.37176         8.76549         2.36496
H         16.95897         7.98443         2.81386
O         15.89349         6.41455         2.67687
H         16.27063         5.56619         3.01783
O         18.98515        11.56025        -1.99654
H         18.70543        12.34087        -2.52935
O         11.02932         6.09357         2.62808
H         10.39392         6.76078         2.98561
O          5.93193        16.64360        -1.72151
H          6.64128        16.16201        -2.19808
O          6.33663         7.17510        -2.31566
H          6.35298         7.99459        -2.85341
O         20.07855        16.88967         1.99736
H         19.20050        16.99661         2.43049
O         12.66156        22.93971         1.41364
H         11.85611        22.64447         1.89160
O          8.34200         6.73086         2.31570
H          8.15144         5.87967         2.76900
O         12.32304        12.83679         1.92029
H         12.27662        11.92252         2.27452
H          1.30041         2.48528         0.89651
H         -0.78403         3.82354         1.11459
H         -0.98999         6.05297         0.10561
H         -1.00869         7.98392        -0.42617
H         -0.91356        10.39609        -0.34364
H         -0.94451        12.22401        -1.16046
H         -0.92309        14.66658        -1.12237
H         -0.77637        16.60231        -1.40002
H         -0.97543        18.93729        -0.65424
H         -0.90121        21.01838        -0.09022
H         -0.92307        23.17678         1.15403
H         -1.03007        25.82196         1.12617
H         -0.98875        28.06933         0.25131
H          0.36740        30.21894         0.48655
H          3.63677         2.27505         0.13716
H          2.61564        31.27016         0.69100
H          6.04274         2.24940        -0.89986
H          5.03509        31.12488         0.63559
H          8.82791         2.55383        -0.74371
H          7.37387        31.06700         0.19321
H         11.02773         2.50923        -0.10257
H          9.82344        31.06275        -0.22816
H         13.46745         2.46810        -0.01252
H         12.30324        31.04513        -0.50106
H         15.87295         2.39385         0.07476
H         14.71829        31.05105        -0.54136
H         18.33369         2.40707        -0.37335
H         17.14922        31.07743        -0.35273
H         20.46455         3.64591        -0.54561
H         21.76128         5.67405        -0.35824
H         21.87055         8.14140        -0.15388
H         21.89993        10.06649         0.59094
H         21.85893        12.53523         0.58268
H         21.92058        14.40919        -0.47326
H         21.95463        16.84257        -0.22329
H         21.72872        18.80909         1.19156
H         21.73164        21.24820         0.96021
H         21.79891        23.12477         0.65481
H         21.77250        25.54892         0.56162
H         21.79207        27.44482         0.34671
H         21.73055        29.90411         0.32490
H         19.58389        31.12433        -0.02042
