         210
 CSIRO Nanostructure Databank - Neutral Graphene Oxide Data Set
C         30.46889        31.64072         0.35044
C         30.66299        32.92364         0.40602
C         30.44643        35.96955         0.17455
C         30.43669        37.15915        -0.14357
C         30.46955        40.14564        -1.46811
C         30.54431        41.32762        -1.83362
C         32.86358        28.88863         1.00639
C         31.78150        29.46180         0.74270
C         32.85176        31.58656         0.97476
C         31.61069        30.87319         0.68017
C         32.83532        33.07591         1.29538
C         31.58777        33.82241         0.77610
C         32.84543        35.97229         0.51659
C         31.52986        35.29746         0.97817
C         32.86439        37.31994         0.03548
C         31.57204        38.07609        -0.19981
C         32.88914        40.04513        -1.26056
C         31.57359        39.42484        -0.80632
C         32.91147        41.51401        -1.53419
C         31.68541        42.20011        -1.86035
C         32.94163        44.15651        -1.82448
C         31.82690        43.58747        -2.01686
C         35.55518        27.43398         1.75351
C         35.32396        28.80877         1.57788
C         34.13619        29.46819         1.23328
C         35.33473        31.66588         1.15831
C         34.08072        30.91784         1.15350
C         35.31177        33.09522         0.94896
C         34.09174        33.81178         0.89286
C         35.31554        35.90881         0.49509
C         34.06475        35.21587         0.62190
C         35.30450        37.37940         0.32108
C         34.06022        38.01832        -0.14198
C         35.40567        40.15267        -0.76360
C         34.15077        39.34489        -0.81332
C         35.39981        41.48657        -1.14229
C         34.15483        42.19535        -1.42510
C         35.40479        44.35367        -1.24389
C         34.19524        43.62816        -1.52108
C         35.49648        45.78313        -1.07880
C         37.92011        27.30914         1.39635
C         36.64785        26.80863         1.71374
C         37.95873        28.77815         1.53904
C         36.58664        29.57318         1.66563
C         37.81356        31.65305         1.00728
C         36.57018        30.98878         1.25767
C         37.76608        33.05211         0.80058
C         36.55689        33.78948         0.81582
C         37.78281        35.96261         0.57348
C         36.54764        35.23282         0.63465
C         37.85640        37.33071         0.25415
C         36.60832        38.11961         0.15299
C         37.86903        40.15725        -0.49266
C         36.65183        39.49015        -0.43031
C         37.94165        41.56886        -0.77792
C         36.71311        42.22419        -1.39854
C         37.89289        44.47724        -1.03139
C         36.62469        43.71104        -1.11245
C         37.86409        45.92640        -0.66948
C         36.52850        46.40432        -0.76154
C         40.18901        24.54992         0.41300
C         39.18326        25.22696         0.74519
C         40.27731        27.31097         0.58543
C         39.04774        26.61854         0.91599
C         40.28602        28.75333         0.63755
C         39.12411        29.49552         1.00342
C         40.29248        31.58315         0.55545
C         39.07615        30.91215         0.87797
C         40.29615        33.04709         0.37665
C         39.00894        33.79123         0.48760
C         40.32081        35.93252         0.58157
C         39.04291        35.22895         0.94622
C         40.32412        37.32736         0.39488
C         39.09153        38.00816         0.15712
C         40.35719        40.18035        -0.00578
C         39.16327        39.37589        -0.46584
C         40.34872        41.56445        -0.20549
C         39.15191        42.25837        -0.62249
C         40.34287        44.53560        -0.26856
C         39.21435        43.74628        -0.82337
C         40.27273        45.90636        -0.01454
C         38.99275        46.59248        -0.23892
C         40.06364        48.63028         0.53184
C         39.10299        47.97096         0.09197
C         42.68429        24.55991        -0.27121
C         41.43567        25.12657         0.10018
C         42.66165        27.33005        -0.09462
C         41.45084        26.58703         0.18758
C         42.68221        28.73326         0.03025
C         41.50486        29.45437         0.35699
C         42.75047        31.62061         0.18251
C         41.51075        30.89002         0.39296
C         42.77839        33.06071         0.34832
C         41.56420        33.78378         0.51386
C         42.77457        35.93309         0.60824
C         41.54415        35.20609         0.56525
C         42.80034        37.33759         0.66825
C         41.56480        38.06664         0.47557
C         42.72080        40.24479         0.79373
C         41.53190        39.47589         0.39991
C         42.80677        41.66069         0.45733
C         41.63316        42.30280        -0.13383
C         42.78453        44.53675         0.44395
C         41.63202        43.84318        -0.14239
C         42.67961        45.93826         0.70441
C         41.43778        46.64536         0.48572
C         42.55722        48.63446         1.23296
C         41.35415        48.06208         0.76404
C         43.70223        25.24337        -0.51460
C         45.01973        27.34569        -0.92337
C         43.89524        26.64840        -0.51526
C         44.96159        28.88408        -1.07177
C         44.02232        29.45167        -0.01144
C         45.15125        31.68037        -0.40007
C         43.94213        30.96134        -0.12346
C         45.21316        33.10287        -0.11415
C         44.01330        33.73729         0.34982
C         45.33447        35.89548         0.79606
C         44.02158        35.16219         0.73164
C         45.30067        37.36607         0.66101
C         44.06986        38.02580         0.74398
C         45.30265        40.23819         0.74855
C         44.07409        39.47964         0.93925
C         45.25754        41.66330         0.79805
C         43.99586        42.36962         0.65547
C         45.18164        44.51019         1.04487
C         43.98399        43.81886         0.67082
C         45.10144        45.92048         1.29179
C         43.86926        46.61131         1.16498
C         43.62030        47.98086         1.37662
C         47.36107        27.51687        -1.59708
C         46.28458        26.91779        -1.33414
C         47.52139        28.92353        -1.36889
C         46.31747        29.58795        -1.03174
C         47.53899        31.74775        -1.17449
C         46.32724        30.98429        -0.80153
C         47.53725        33.27283        -0.99329
C         46.40059        33.84881        -0.27381
C         47.77145        35.97962         0.07753
C         46.62273        35.11035         0.54457
C         47.76680        37.39467         0.35124
C         46.53772        38.09227         0.57333
C         47.76537        40.23633         0.57946
C         46.53587        39.52527         0.60882
C         47.76811        41.73848         0.47563
C         46.46442        42.39616         0.85897
C         47.67458        44.46393         1.41243
C         46.43559        43.79885         1.09794
C         47.45413        45.83019         1.67338
C         46.36905        46.46113         1.62308
C         50.05715        29.05113        -1.50641
C         48.76981        29.62628        -1.38784
C         50.09041        31.75495        -1.21811
C         48.83745        31.03955        -1.27712
C         50.11176        33.17848        -1.01660
C         48.85591        34.04394        -1.15479
C         50.16687        36.06311        -0.39343
C         48.91817        35.35523        -0.38644
C         50.20652        37.44335        -0.00764
C         48.98580        38.13120         0.28064
C         50.24234        40.27427         0.63027
C         48.98924        39.55232         0.49311
C         50.24231        41.66896         1.02734
C         49.00106        42.37814         1.08283
C         50.18762        44.25272         1.80726
C         48.91506        43.74378         1.45747
C         51.17613        29.61423        -1.45585
C         52.50934        31.80872        -1.17668
C         51.35300        31.00780        -1.30110
C         52.44419        33.05335        -1.02073
C         51.32410        33.90505        -0.91823
C         52.49943        36.13621        -0.56109
C         51.36023        35.32377        -0.68537
C         52.54521        37.35441        -0.24251
C         51.44400        38.17241         0.07578
C         52.57812        40.35623         0.74592
C         51.45271        39.54470         0.46343
C         52.64151        41.53935         1.15586
C         51.49419        42.34870         1.35335
C         51.30767        43.68306         1.77709
O         38.79246        44.17345        -2.17310
O         35.91475        38.13040         1.46604
O         43.27211        39.90390         2.09632
O         47.19900        32.66164        -2.28876
O         37.44245        29.29104         2.80303
O         31.46440        39.27945         0.62710
O         44.69607        35.43910         2.04185
O         41.94931        43.05992        -1.34884
O         39.53069        33.51457        -0.83921
O         33.62172        39.24160        -2.21916
O         32.75120        33.18048         2.74197
H         31.89409        32.80763         3.03816
O         39.44078        39.10497        -1.89404
H         39.42663        39.96511        -2.36724
O         47.09466        34.61383         1.83776
H         46.30772        34.61029         2.43694
O         44.38143        29.15348        -2.36179
H         45.02127        28.88995        -3.05583
O         36.94042        42.12451        -2.84504
H         37.66672        42.76061        -3.05733
O         48.89855        34.51209        -2.53610
H         48.42895        33.83472        -3.07944
O         39.04326        35.13634         2.41653
H         38.91079        36.03852         2.77803
O         44.65911        29.17757         1.27013
H         44.09236        29.54275         1.98143
O         31.32525        35.55765         2.36031
H         31.30303        36.52802         2.49685
O         47.88120        42.00466        -0.97950
H         47.87439        42.97767        -1.10738
