         234
 CSIRO Nanostructure Databank - Neutral Graphene Oxide Data Set
C          1.17447         2.36887         1.16069
C          1.12669         3.67272         0.65213
C          2.37786         1.68073         1.23333
C          2.28348         4.29310         0.13914
C          1.14853         6.56052         0.04723
C          1.08565         7.85894        -0.31438
C          2.28184         5.70049        -0.28628
C          2.14262         8.45270        -1.20389
C          1.09307        10.72410        -1.31349
C          1.19682        12.13964        -1.56090
C          2.21849         9.97560        -1.19203
C          2.39903        12.78789        -1.46742
C          1.30750        15.60923        -0.25593
C          1.34284        16.49984         0.81109
C          2.46736        14.90727        -0.61616
C          2.57808        16.80374         1.41501
C          2.67774        17.87175         2.37103
C          3.56600         2.26449         0.72291
C          3.48328         3.54240         0.09825
C          4.82929         1.62950         0.94918
C          4.68495         4.08309        -0.56421
C          3.41329         6.28323        -0.82939
C          3.46421         7.72153        -1.02750
C          4.65168         5.49934        -1.07524
C          4.65286         8.38607        -1.09755
C          3.57396        10.64167        -1.43209
C          3.64038        12.13560        -1.08462
C          4.61028         9.84205        -0.67361
C          4.77371        12.77813        -0.59123
C          3.69212        15.02322         0.07323
C          3.76135        16.11012         1.00711
C          4.86889        14.19148        -0.17671
C          5.02778        16.60719         1.41551
C          3.89491        18.35058         2.76002
C          5.10402        17.78954         2.21811
C          6.04850         2.22744         0.61089
C          6.01167         3.43750        -0.24596
C          7.29325         1.67062         0.96795
C          7.25761         4.25535        -0.36400
C          5.93932         6.19336        -1.43643
C          5.94948         7.72950        -1.55389
C          7.29612         5.41751        -1.36950
C          7.13535         8.31762        -0.84392
C          5.94264        10.49999        -0.60586
C          6.03489        11.97154        -0.21621
C          6.97823         9.60070        -0.32506
C          7.27636        12.73260        -0.81727
C          6.12841        14.76508         0.14290
C          6.21196        16.03296         0.85515
C          7.37456        14.13414        -0.23923
C          7.43905        16.68806         1.04187
C          6.33574        18.42401         2.39623
C          7.51372        17.90958         1.79451
C          8.54667         2.25630         0.62764
C          8.55517         3.61102        -0.00314
C          9.73958         1.66525         1.00336
C          9.79402         4.08520        -0.77610
C          8.55510         6.24435        -1.09053
C          8.47098         7.72559        -1.15577
C          9.76385         5.61079        -0.89351
C          9.78322         8.49291        -1.16868
C          8.86407        10.75571        -0.43928
C          8.63597        12.05698        -0.77443
C          9.95590         9.94850        -0.90926
C          9.84539        12.83777        -1.13589
C          8.60026        14.79604        -0.17163
C          8.63486        16.25869         0.23251
C          9.86689        14.22061        -0.57548
C          9.94764        16.63049         0.89156
C          8.72571        18.63021         1.90444
C          9.99819        17.97958         1.66082
C         11.05562         2.25434         0.70341
C         11.08353         3.51262        -0.16834
C         12.23293         1.90565         1.51850
C         12.24404         4.40240        -0.01474
C         11.01988         6.34587        -0.91028
C         11.04902         7.72883        -1.11872
C         12.26516         5.68155        -0.56727
C         12.28093         8.43885        -1.33176
C         11.12736        10.58162        -1.24717
C         11.12523        12.05997        -1.27324
C         12.34574         9.83305        -1.44741
C         12.38761        12.66785        -0.78005
C         11.09685        14.86564        -0.38027
C         11.19446        16.13623         0.28208
C         12.38552        14.11287        -0.43541
C         12.42520        16.74360         0.56791
C         11.27401        18.65750         1.66904
C         12.45547        18.03662         1.23904
C         13.42906         2.61371         1.42129
C         13.38071         3.94997         0.77950
C         14.65037         2.19952         2.02041
C         14.69634         4.70153         0.57916
C         13.53061         6.34686        -0.81400
C         13.50846         7.64998        -1.52104
C         14.72513         5.78145        -0.41347
C         14.80812         8.39145        -1.82171
C         13.61402        10.53554        -1.57161
C         13.66934        11.94285        -1.07400
C         14.80693         9.87061        -1.77302
C         14.92560        12.75140        -1.13350
C         13.67977        14.83572        -0.42811
C         13.67335        16.16346         0.11555
C         14.87165        14.21554        -0.81398
C         14.89471        16.83863         0.30617
C         13.69792        18.69318         1.41027
C         14.91342        18.11661         0.98607
C         15.87807         2.90968         1.85318
C         15.92465         4.04635         1.03239
C         17.13361         2.41641         2.40313
C         17.14130         4.85962         0.92575
C         16.02539         6.30135        -0.88465
C         16.09364         7.66651        -1.54028
C         17.27982         5.75495        -0.26233
C         17.35884         8.44032        -1.45021
C         16.09476        10.60289        -2.02021
C         16.12685        12.14964        -1.81985
C         17.34965         9.79118        -1.91702
C         17.36694        12.95216        -1.62416
C         16.11812        14.92456        -0.71726
C         16.12884        16.25263        -0.13789
C         17.32546        14.27637        -1.07126
C         17.33869        16.93129         0.10883
C         16.14427        18.73743         1.27128
C         17.36970        18.15106         0.87221
C         18.32348         3.10228         2.30386
C         18.35834         4.45479         1.69445
C         19.59761         2.48913         2.64778
C         19.67457         5.10898         1.37919
C         18.57126         6.47046        -0.47809
C         18.57201         7.81480        -1.11316
C         19.75394         6.10490         0.31848
C         19.82014         8.53188        -1.14242
C         18.60389        10.34901        -2.17800
C         18.59940        12.49690        -2.07823
C         19.83422         9.87039        -1.65141
C         19.86472        12.98283        -1.61746
C         18.58822        15.03365        -1.08954
C         18.59737        16.43687        -0.44805
C         19.87962        14.32442        -1.15772
C         19.87478        16.95277         0.06536
C         18.60651        18.74964         1.18858
C         19.84973        18.14468         0.84751
C         20.80151         3.06680         2.40322
C         20.94420         4.43129         1.84303
C         22.21736         4.88325         1.22243
C         21.04740         6.43415        -0.37158
C         21.04841         7.91696        -0.74078
C         22.26878         5.88420         0.32797
C         22.21602         8.66381        -0.82944
C         21.02743        10.68783        -1.58421
C         21.04378        12.16982        -1.62435
C         22.19765        10.02011        -1.19353
C         22.24958        12.87694        -1.40380
C         21.09569        14.96556        -0.83725
C         21.09887        16.29839        -0.21818
C         22.27844        14.22231        -1.05199
C         22.29627        16.89995         0.22124
C         21.07911        18.71548         1.26752
C         22.28029        18.10383         0.93561
O         13.80674         5.00428         1.71633
O          5.09433         5.61920        -2.48461
O         17.44117         5.46499         2.24438
O         14.58836        11.98351         0.08189
O         18.55384        16.25074        -1.90571
O         10.49085        12.67411        -2.45486
O         11.42457         2.22797        -0.74736
O          8.02422        10.10185         0.45872
O         15.94156        11.55691        -3.12910
O          5.34292         3.18202        -1.52255
O         14.03942         7.75323        -2.88391
O         12.30596        13.05074         0.62704
O         16.18738         6.44422        -2.32619
O          9.98725        16.61761         2.30755
O         20.35699         5.49770         2.65979
O         18.64763        11.46487        -3.01607
O         18.17880         5.24828        -1.30917
O          7.91555         4.59746         0.89290
O          2.40190        14.15319        -1.79254
O          9.02609         8.26546        -2.42622
O          3.85247        10.50320        -2.84957
H          3.28523        11.14073        -3.33221
O          6.12458        12.00962         1.23409
H          6.89768        11.45216         1.48674
O          1.76921         8.11134        -2.58463
H          2.47291         8.47830        -3.16410
O          6.97167        12.86438        -2.23301
H          7.80294        13.06078        -2.71555
O          9.73124         3.51978        -2.09721
H          8.97535         3.93766        -2.58368
O         21.04954         5.71579        -1.66031
H         20.12361         5.63838        -1.98270
O          6.07215         8.03938        -2.96432
H          5.55078         7.36274        -3.45158
O          4.15566         9.81367         0.73121
H          4.51003        10.61697         1.17983
O          7.48270         4.85197        -2.68694
H          6.58539         4.57765        -3.00286
O          8.61142        17.02802        -1.01615
H          7.78805        16.79609        -1.49571
H          0.25405         1.90424         1.54085
H          0.16450         4.20089         0.64468
H          2.42239         0.68363         1.69372
H          0.34242         6.14227         0.66639
H          0.23159         8.47764        -0.00139
H          0.09467        10.26582        -1.27133
H          0.29759        12.71011        -1.82661
H          0.38532        15.45090        -0.82965
H          0.43597        17.03806         1.12040
H          1.75055        18.33622         2.73695
H          4.83890         0.68349         1.51133
H          3.96950        19.20692         3.44533
H          7.30029         0.72067         1.52397
H          6.39439        19.34866         2.98851
H          9.71396         0.73092         1.58552
H          8.71190        19.66135         2.28656
H         12.18582         0.99462         2.13437
H         11.30131        19.71773         1.96103
H         14.66050         1.26008         2.59296
H         13.72002        19.65926         1.93558
H         17.13161         1.42202         2.87639
H         16.15581        19.68678         1.82653
H         19.56706         1.47442         3.07346
H         18.61404        19.69174         1.75609
H         21.72440         2.50578         2.61580
H         23.14995         4.42528         1.58885
H         23.24881         6.18585        -0.07209
H         23.17936         8.21292        -0.55375
H         23.15050        10.56042        -1.13056
H         23.21617        12.36356        -1.48907
H         23.25844        14.69034        -0.88804
H         23.26361        16.42447         0.01168
H         21.06963        19.64211         1.85856
H         23.23057        18.55228         1.25719
