         420
 CSIRO Nanostructure Databank - Neutral Graphene Oxide Data Set
C         28.05988        27.51786         1.81339
C         28.01576        28.90580         1.51371
C         26.79697        29.63435         1.56442
C         27.95561        31.68597         0.92430
C         26.76776        30.97778         1.26417
C         27.93135        33.10120         0.63113
C         26.71607        33.82525         0.53107
C         27.90527        35.92942         0.17280
C         26.70164        35.18302         0.28208
C         27.89701        37.35786        -0.04777
C         26.69401        38.08910        -0.22130
C         27.92023        40.19887        -0.40886
C         26.70727        39.45867        -0.38662
C         27.92148        41.64172        -0.57122
C         26.71673        42.38793        -0.58889
C         27.95050        44.46010        -0.88750
C         26.72805        43.76364        -0.72127
C         27.97670        45.90129        -0.97231
C         30.45576        27.45777         1.33617
C         29.24355        26.82069         1.72934
C         30.44464        28.85127         1.06828
C         29.21978        29.58041         1.15786
C         30.41430        31.66374         0.56928
C         29.18899        30.98200         0.89115
C         30.39605        33.09337         0.42573
C         29.15840        33.80597         0.45563
C         30.37051        35.96414         0.28991
C         29.14050        35.23182         0.28978
C         30.34205        37.36850         0.15851
C         29.12847        38.07658        -0.07018
C         30.39549        40.22893        -0.34833
C         29.14516        39.50239        -0.26900
C         30.40750        41.61885        -0.61580
C         29.15842        42.33425        -0.71574
C         30.42772        44.45449        -1.29763
C         29.15989        43.73962        -0.90505
C         30.42632        45.93090        -0.97271
C         29.16215        46.59425        -0.95941
C         32.87078        24.58305         1.08827
C         31.71566        25.30281         1.33470
C         32.86889        27.37632         0.74026
C         31.67763        26.70588         1.15671
C         32.86622        28.79968         0.55570
C         31.65389        29.53462         0.68146
C         32.83008        31.63108        -0.13637
C         31.61539        30.93536         0.43176
C         32.86196        33.11207         0.15511
C         31.62682        33.81093         0.31315
C         32.85667        35.91668         0.34390
C         31.62196        35.23712         0.35123
C         32.87785        37.37699         0.47669
C         31.57180        38.14990         0.33959
C         32.87018        40.20342        -0.23648
C         31.62813        39.54899        -0.10806
C         32.89557        41.62888        -0.50054
C         31.65638        42.33893        -0.66804
C         32.89390        44.46450        -0.85303
C         31.68155        43.73744        -0.87929
C         32.90510        45.90058        -0.90304
C         31.65241        46.62135        -0.88604
C         32.89904        48.72103        -0.71084
C         31.70837        48.04896        -0.76683
C         35.32820        23.00040         0.22030
C         35.30566        24.45119         0.47086
C         34.03926        25.22467         0.62100
C         35.16191        27.32783        -0.27190
C         34.05178        26.61715         0.47783
C         35.28426        28.77861         0.11216
C         34.11898        29.49478         0.31841
C         35.33519        31.62378         0.08230
C         34.13716        30.94014         0.18570
C         35.34611        33.08174        -0.30088
C         34.06726        33.80197         0.06114
C         35.32834        35.93283         0.23923
C         34.08191        35.21857         0.20290
C         35.33646        37.33691         0.18213
C         34.11229        38.08566         0.14241
C         35.38492        40.09842        -0.41946
C         34.09472        39.44946        -0.12845
C         35.38133        41.58609        -0.59870
C         34.11122        42.33786        -0.57005
C         35.35865        44.47476        -0.83221
C         34.13805        43.75786        -0.72667
C         35.39063        45.89425        -0.91577
C         34.13633        46.61015        -0.87234
C         35.39605        48.73945        -0.72173
C         34.15444        48.03509        -0.77153
C         35.44480        50.15531        -0.57054
C         37.73543        23.04611        -0.34110
C         36.47100        22.35943        -0.13877
C         37.76092        24.43936        -0.27193
C         36.55349        25.19284         0.10921
C         37.77446        27.31743         0.23467
C         36.56015        26.63147        -0.37828
C         37.80322        28.72125         0.35335
C         36.59303        29.46223        -0.17801
C         37.81242        31.59849         0.29427
C         36.59609        30.93497         0.13189
C         37.91257        33.09441         0.06747
C         36.59045        33.80989         0.15665
C         37.79156        35.88724         0.65857
C         36.57619        35.18274         0.31430
C         37.73749        37.33598         0.78089
C         36.57222        38.06487         0.26722
C         37.89450        40.13183        -0.03489
C         36.63618        39.42623         0.00436
C         37.93567        41.54456        -0.39953
C         36.65602        42.30372        -0.34199
C         37.88277        44.39337        -1.10596
C         36.63474        43.76851        -0.60114
C         37.89864        45.88948        -1.19857
C         36.62290        46.61273        -0.95451
C         37.87354        48.75396        -0.89465
C         36.64166        48.02945        -0.85477
C         37.87832        50.15480        -0.78278
C         36.63640        50.83473        -0.58746
C         40.24695        20.28598        -0.96934
C         39.03556        20.95271        -0.69136
C         40.14682        23.15575        -1.10730
C         38.95595        22.33752        -0.64493
C         40.21276        24.53769        -0.50798
C         38.99176        25.19451        -0.25065
C         40.24924        27.18115         0.53277
C         38.97072        26.55463         0.18569
C         40.25038        28.68931         0.85470
C         38.99196        29.44366         0.62869
C         40.22173        31.58754         0.99188
C         39.00665        30.86136         0.55745
C         40.27863        33.07846         0.97080
C         39.05597        33.79076         0.78593
C         40.20683        35.97033         1.28982
C         38.99192        35.19197         0.93715
C         40.29634        37.36788         0.91172
C         39.07609        38.12789         0.81952
C         40.37858        40.11986         0.10014
C         39.09500        39.48702         0.27219
C         40.44466        41.45643        -0.61983
C         39.12255        42.19782        -0.57763
C         40.42843        44.41480        -0.73759
C         39.16442        43.62735        -0.96945
C         40.35710        45.90273        -0.67621
C         39.19172        46.57697        -0.97925
C         40.39253        48.77303        -0.71874
C         39.17481        48.06003        -1.24565
C         40.36543        50.18899        -0.67556
C         39.12559        50.89705        -0.80400
C         40.33193        53.01873        -0.74052
C         39.15133        52.31270        -0.86110
C         42.69689        20.29793        -1.26801
C         41.45111        20.98787        -1.11961
C         42.66028        23.12918        -1.08219
C         41.46240        22.42219        -1.04796
C         42.67685        24.56553        -0.80702
C         41.45425        25.21930        -0.41596
C         42.69468        27.31420        -0.01527
C         41.49736        26.56881         0.04336
C         42.70518        28.73147         0.30407
C         41.53173        29.38852         0.67272
C         42.83987        31.53500         1.04089
C         41.53477        30.80353         1.05414
C         42.80936        33.04477         1.11528
C         41.50275        33.74645         1.12424
C         42.80242        35.94235         0.97081
C         41.56270        35.19361         1.31449
C         42.81052        37.33428         0.88802
C         41.55892        38.13908         1.18070
C         42.80964        40.19931         0.41463
C         41.54198        39.50180         0.51352
C         42.81664        41.60968         0.22397
C         41.60613        42.31055        -0.12457
C         42.70632        44.49797         0.43408
C         41.58475        43.68868        -0.17016
C         42.77135        45.93157        -0.04887
C         41.59867        46.61636        -0.40004
C         42.79103        48.78408        -0.20620
C         41.59260        48.06705        -0.46285
C         42.80233        50.21901        -0.24885
C         41.57965        50.91661        -0.47768
C         42.77255        53.04839        -0.31002
C         41.56583        52.34225        -0.51202
C         43.87355        20.98935        -1.34930
C         45.11333        23.14147        -1.38352
C         43.90997        22.42390        -1.27055
C         45.08249        24.65116        -1.46967
C         43.87204        25.28300        -0.82191
C         45.11281        27.41071        -0.51122
C         43.90237        26.66512        -0.44320
C         45.10554        28.79851        -0.29358
C         43.93844        29.48476         0.14047
C         45.21749        31.63082         0.31220
C         44.01696        30.87184         0.44920
C         45.23067        33.06113         0.51525
C         44.03195        33.78685         0.74552
C         45.24936        35.91825         0.60602
C         44.01482        35.20303         0.73312
C         45.26436        37.34231         0.59919
C         44.03119        38.05654         0.66509
C         45.29309        40.19951         0.20009
C         44.01680        39.47667         0.54274
C         45.27498        41.66790         0.53395
C         44.04211        42.35891         0.36616
C         45.23951        44.47958         0.47101
C         44.02435        43.76852         0.38936
C         45.23698        45.91471         0.30202
C         44.01835        46.61701         0.04647
C         45.23005        48.76520         0.00327
C         44.03174        48.06347        -0.04741
C         45.25972        50.22819         0.37221
C         44.00091        50.95977        -0.04223
C         43.95794        52.36203        -0.06290
C         47.55260        23.20223        -1.60420
C         46.37106        22.50403        -1.60544
C         47.58557        24.60236        -1.24493
C         46.39289        25.27769        -1.06969
C         47.64247        27.42145        -0.94562
C         46.42551        26.66026        -0.49570
C         47.59102        28.87695        -0.97507
C         46.30262        29.60248        -0.61261
C         47.63881        31.68931        -0.25110
C         46.40981        30.99786        -0.15649
C         47.70436        33.07518         0.12783
C         46.47377        33.77287         0.43462
C         47.71674        35.89880         0.80534
C         46.46613        35.17818         0.58363
C         47.74051        37.36022         0.73396
C         46.52224        38.06317         0.60331
C         47.72353        40.17844         0.90316
C         46.54056        39.48011         0.61748
C         47.60507        41.60553         1.43438
C         46.45345        42.36686         0.80175
C         47.71687        44.50349         0.74529
C         46.46387        43.78414         0.70507
C         47.71159        45.91423         0.46678
C         46.48487        46.58803         0.26649
C         47.78738        48.77276        -0.13228
C         46.48882        48.01625        -0.09663
C         47.71232        50.25834        -0.13050
C         46.55282        50.91397         0.00152
C         50.08673        24.62523        -1.02139
C         48.86185        25.29773        -1.07773
C         50.11337        27.46193        -1.15829
C         48.86633        26.74002        -1.05778
C         50.04155        28.91172        -1.18585
C         48.85097        29.61815        -0.89318
C         50.10233        31.72648        -0.69994
C         48.85997        31.01387        -0.65073
C         50.13668        33.13267        -0.38726
C         48.93966        33.76151         0.07054
C         50.22481        35.94770         0.22901
C         49.03988        35.14453         0.54476
C         50.22835        37.35581         0.56784
C         48.97102        38.05394         0.82893
C         50.17897        40.19255         1.30260
C         48.93568        39.46314         1.01127
C         50.20900        41.66130         1.21840
C         48.94524        42.42498         1.57592
C         50.17217        44.50879         0.94700
C         48.92937        43.81948         0.97811
C         50.17390        45.94872         0.77119
C         48.95921        46.64398         0.50054
C         50.17000        48.76433         0.61166
C         48.99363        48.05942         0.33830
C         51.28544        25.33244        -0.90475
C         52.61441        27.39778        -0.64980
C         51.33646        26.73988        -0.97869
C         52.96038        28.65276        -1.19104
C         51.15121        29.72019        -1.52536
C         52.60208        31.74499        -1.25058
C         51.27713        31.05431        -1.13444
C         52.59235        33.22029        -0.95618
C         51.33543        33.87824        -0.51511
C         52.58668        36.05168        -0.55786
C         51.35337        35.28303        -0.27277
C         52.61711        37.51199        -0.11875
C         51.41728        38.08122         0.50964
C         52.70369        40.25236         0.82679
C         51.49095        39.44555         1.04551
C         52.68231        41.63316         0.93109
C         51.40929        42.34504         1.09147
C         52.65075        44.49685         1.04008
C         51.40617        43.79980         1.06174
C         52.69047        46.00753         1.19892
C         51.36913        46.68283         0.93808
C         51.34390        48.07946         0.92225
C         54.55856        27.65471         0.78910
C         53.48774        26.89253         0.34355
C         54.76370        28.99180         0.34529
C         53.89498        29.52972        -0.64395
C         55.01490        31.75517        -0.38056
C         53.98353        30.95962        -1.16595
C         55.07213        33.19509        -0.52569
C         53.87025        33.92903        -0.67745
C         55.10001        36.03876        -0.43760
C         53.87837        35.33075        -0.58157
C         55.10655        37.47965        -0.19850
C         53.92713        38.13829         0.12692
C         55.27180        40.29814         0.51022
C         53.96172        39.49979         0.66789
C         55.14622        41.76754         0.50143
C         53.92139        42.39352         0.79076
C         55.14622        44.64207         0.91351
C         53.86494        43.82560         0.90623
C         54.94155        45.95152         0.18843
C         53.77362        46.58524         0.30126
C         55.81804        29.79704         0.86224
C         55.92589        31.13308         0.48037
C         56.28637        33.91082        -0.38122
C         56.30171        35.29433        -0.38034
C         56.32584        38.24493        -0.34365
C         56.37644        39.58885        -0.14379
C         56.31844        42.56021         0.21509
C         56.33304        43.90135         0.37631
O         52.18304        29.12998        -2.25953
O         32.19395        37.91434         1.65724
O         47.23166        48.23855        -1.38572
O         40.74470        31.04861         2.25537
O         40.89921        35.64905         2.54644
O         43.08291        32.21430         2.31171
O         52.42408        37.11688        -1.53794
O         40.08192        43.88225        -2.08603
O         36.67886        43.24445         0.78794
O         48.52347        35.35136         1.89921
O         52.58903        32.70154        -2.36054
O         54.88527        39.69119         1.78931
O         46.69116        29.42988        -2.02756
O         36.95582        26.67460        -1.74515
O         36.24611        24.94076         1.52313
O         35.48352        40.70019        -1.76986
O         50.94973        39.60802         2.40420
O         38.23030        37.91671         2.02068
O         37.76431        45.02548        -2.40506
O         40.27390        27.68966         1.91317
O         38.30521        33.20289        -1.36553
H         37.47258        33.22830        -1.89206
O         30.44436        44.40049        -2.78360
H         29.64253        44.87366        -3.09395
O         42.36657        44.62937         1.87035
H         42.44880        43.73794         2.27288
O         34.62026        27.35180        -1.62778
H         35.39614        27.07654        -2.20537
O         41.56098        38.38446         2.62887
H         41.39648        37.50863         3.05728
O         45.34827        40.16980        -1.28333
H         44.51235        40.56537        -1.61380
O         44.93460        24.96347        -2.91142
H         45.68536        24.53580        -3.37653
O         46.66452        26.47942         0.97160
H         47.40771        25.84446         1.06768
O         55.45507        44.97507         2.31829
H         55.57393        44.12691         2.79710
O         36.75831        29.38631        -1.64634
H         36.89607        28.40899        -1.86869
O         49.13035        42.68915         3.00863
H         48.42348        43.30983         3.28827
O         39.26010        48.17078        -2.71933
H         39.92776        47.52265        -3.03027
O         53.04967        46.31116         2.57323
H         53.95587        45.93755         2.72381
O         45.24620        50.23215         1.85291
H         44.37359        49.88746         2.14036
O         40.70813        41.16208        -2.02605
H         40.61992        42.02209        -2.50481
O         39.89976        23.37774        -2.54993
H         39.83763        22.49440        -2.97189
O         47.10647        41.37947         2.78970
H         47.87237        41.09973         3.34019
O         32.69537        31.53479        -1.59884
H         33.43590        32.05488        -1.98791
O         35.39643        33.04573        -1.79246
H         35.70326        32.14925        -2.05742
O         54.47174        30.88587        -2.52677
H         54.10606        31.66739        -3.00433
H         27.13349        27.00309         2.10590
H         25.87139        29.10948         1.84112
H         25.80777        31.50875         1.30920
H         25.75574        33.30267         0.63152
H         25.73102        35.68879         0.19370
H         25.72673        37.56950        -0.22303
H         25.74780        39.97614        -0.51650
H         25.75085        41.87954        -0.47108
H         25.78500        44.32835        -0.70392
H         27.02127        46.44484        -0.95933
H         29.23849        25.74769         1.96096
H         29.12412        47.69161        -0.91486
H         32.87175        23.49550         1.24539
H         30.82196        24.76049         1.66905
H         32.87695        49.81546        -0.62861
H         30.77664        48.62849        -0.72795
H         34.38616        22.43494         0.27323
H         34.51798        50.72683        -0.43195
H         36.42868        21.27538        -0.31661
H         36.62498        51.92426        -0.45265
H         40.26051        19.18704        -0.99795
H         38.14777        20.34097        -0.47796
H         40.32680        54.11676        -0.79465
H         38.21826        52.87143        -1.01432
H         42.69224        19.19938        -1.31818
H         42.76681        54.14741        -0.32932
H         44.80949        20.42853        -1.47172
H         44.87091        52.94269         0.12573
H         48.49239        22.67032        -1.80153
H         46.40971        21.41786        -1.76722
H         48.63080        50.82460        -0.34833
H         46.55767        52.01211        -0.05430
H         50.11852        23.52736        -1.01677
H         50.18463        49.86076         0.55385
H         52.22250        24.77215        -0.78093
H         52.26187        48.64432         1.13330
H         55.23375        27.24668         1.55458
H         53.29963        25.90616         0.79073
H         55.76446        46.35804        -0.41848
H         53.60051        47.54446        -0.20938
H         56.51988        29.37216         1.59265
H         56.70767        31.74789         0.95100
H         57.23384        33.36112        -0.29977
H         57.26316        35.81400        -0.27264
H         57.20033        37.74738        -0.78579
H         57.26869        40.14459        -0.46338
H         57.23337        42.05020        -0.11676
H         57.25195        44.47507         0.18676
