         621
 CSIRO Nanostructure Databank - Neutral Graphene Oxide Data Set
C          5.67733        31.96243        -1.65381
C          5.66205        33.32693        -1.80620
C          8.27372        27.71897        -0.87493
C          8.22758        29.12884        -1.12117
C          6.96366        29.83256        -1.29627
C          8.13782        32.00269        -1.45700
C          6.89725        31.19499        -1.49511
C          8.11079        33.33529        -2.12844
C          6.86161        34.11717        -1.99748
C          8.15939        36.21505        -2.29943
C          6.91181        35.48629        -2.13413
C          8.18439        37.61898        -2.31605
C         10.90698        23.56928         0.27013
C         10.80816        24.84964        -0.40981
C          9.55713        25.62301        -0.47251
C         10.75066        27.72861        -1.02251
C          9.48799        26.97908        -0.78699
C         10.69652        29.20881        -0.85167
C          9.42493        29.86387        -1.15464
C         10.71568        32.00292        -1.67977
C          9.45821        31.32465        -1.26587
C         10.69104        33.34462        -2.09784
C          9.40951        34.04088        -2.34676
C         10.63230        36.18197        -2.46507
C          9.40196        35.50863        -2.38158
C         10.64451        37.61252        -2.52962
C          9.39990        38.34906        -2.43004
C         10.61989        40.50461        -2.52471
C          9.41970        39.76224        -2.37802
C         10.70296        41.88888        -2.34298
C         13.51670        19.50900         1.58207
C         13.41787        21.01381         1.58023
C         12.20052        21.59866         0.92907
C         13.38527        23.71723         0.40564
C         12.15432        22.93132         0.48856
C         13.37721        25.04739         0.03847
C         12.16518        25.60984        -0.59568
C         13.27903        27.90817        -0.59637
C         12.09450        27.07391        -0.88380
C         13.27366        29.25890        -0.88880
C         11.98779        29.98584        -0.93629
C         13.17667        31.95494        -1.85722
C         11.96837        31.34570        -1.49818
C         13.14600        33.25435        -2.61766
C         11.89050        34.04722        -2.36841
C         13.11842        36.15480        -2.66778
C         11.87627        35.44442        -2.54373
C         13.09332        37.55725        -2.71065
C         11.86996        38.28192        -2.68156
C         13.13638        40.50919        -2.94765
C         11.84320        39.74862        -2.87915
C         13.16732        41.93683        -2.61078
C         11.94728        42.61442        -2.33920
C         13.25683        44.63159        -1.80163
C         12.01724        43.97691        -1.95629
C         13.34040        45.95082        -1.26531
C         16.18319        15.44412         2.56112
C         15.94663        16.86199         2.47352
C         14.78059        17.44395         1.99011
C         16.03388        19.62381         1.58409
C         14.71314        18.87516         1.77036
C         15.94817        21.12977         1.70380
C         14.70679        21.66265         1.12040
C         15.88082        23.91848         0.99310
C         14.68944        23.08953         0.69777
C         15.76528        25.32633         0.69451
C         14.57388        25.85072         0.20829
C         15.77336        28.12693        -0.13451
C         14.47406        27.30835        -0.01102
C         15.73958        29.38521        -0.86379
C         14.49186        30.00269        -1.08006
C         15.65875        31.96447        -1.97793
C         14.43280        31.31758        -1.63136
C         15.65036        33.34523        -2.39591
C         14.42129        34.04514        -2.50334
C         15.63340        36.15195        -2.76429
C         14.38755        35.43999        -2.64670
C         15.64112        37.56237        -2.83714
C         14.37840        38.28116        -2.61003
C         15.65665        40.46186        -3.00173
C         14.39898        39.76658        -2.67922
C         15.65258        41.89318        -2.85424
C         14.42593        42.58277        -2.52144
C         15.74131        44.59035        -1.95007
C         14.47897        43.94389        -2.11762
C         15.80149        45.85323        -1.28384
C         14.56729        46.52760        -0.92817
C         15.75570        48.18599         0.44275
C         14.59992        47.76959        -0.20342
C         15.77581        49.27026         1.36871
C         18.58768        11.24512         1.83667
C         18.58289        12.66916         1.93219
C         17.45402        13.36675         2.37545
C         18.69978        15.48545         2.22287
C         17.42714        14.79066         2.45620
C         18.88006        16.79894         2.69194
C         17.00451        17.77915         2.87058
C         18.38662        19.82944         2.60498
C         17.14489        19.04927         2.40781
C         18.27782        21.33351         2.50565
C         17.04405        21.93744         1.91976
C         18.21496        24.21340         1.85908
C         17.01134        23.35988         1.59395
C         18.25112        25.61801         1.33099
C         16.96261        26.20359         0.84591
C         18.25030        28.09107        -0.17813
C         17.04311        27.43870         0.04892
C         18.23623        29.36253        -0.91493
C         16.96267        29.97847        -1.27557
C         18.10095        31.87081        -2.42458
C         16.88922        31.27596        -1.84563
C         18.12633        33.32287        -2.69582
C         16.89060        34.03000        -2.61682
C         18.08950        36.14501        -3.05541
C         16.87067        35.43973        -2.81565
C         18.03814        37.54563        -3.27418
C         16.83461        38.27675        -3.10603
C         18.00982        40.47386        -3.63930
C         16.81208        39.72875        -3.22076
C         18.07670        41.97129        -3.41645
C         16.87284        42.59745        -2.83821
C         18.22870        44.52947        -2.13673
C         16.93881        43.91257        -2.32916
C         18.24127        45.79484        -1.44258
C         17.05917        46.40988        -0.93378
C         18.19859        47.99234         0.82900
C         16.97178        47.28925         0.32578
C         18.08998        48.73009         2.10511
C         16.86950        49.58143         2.20771
C         18.06644        51.13629         3.75744
C         16.89120        50.68142         3.08746
C         18.09401        52.31462         4.51782
C         21.12663         7.07245         1.61600
C         21.03071         8.46424         1.46012
C         19.77908         9.10962         1.45111
C         20.85760        11.26515         0.85009
C         19.69466        10.51854         1.38261
C         20.69174        12.69826         0.72785
C         19.72952        13.41462         1.42227
C         20.93903        15.65246         1.22825
C         19.79259        14.84437         1.56526
C         20.71653        17.05544         1.25325
C         19.79779        17.69546         2.09076
C         20.95243        20.07570         2.16661
C         19.76821        19.16609         2.38898
C         20.84408        21.43431         2.38478
C         19.55328        22.13070         2.54943
C         20.81428        24.34798         1.96631
C         19.53331        23.61264         2.24363
C         20.78074        25.69189         1.41115
C         19.54585        26.26637         0.96991
C         20.67598        28.37058         0.28552
C         19.48658        27.49862         0.27863
C         20.66207        29.69260        -0.45771
C         19.42843        30.01664        -1.21775
C         20.69619        31.86001        -2.45567
C         19.42218        31.13486        -2.16404
C         20.63512        33.31640        -2.97601
C         19.33500        34.02309        -2.93332
C         20.58019        36.14015        -3.36418
C         19.33766        35.42964        -3.09375
C         20.52628        37.47797        -3.72046
C         19.25364        38.21437        -3.76501
C         20.57166        40.44670        -3.93179
C         19.26923        39.72533        -3.89691
C         20.70563        41.94532        -3.74332
C         19.41882        42.68792        -3.36585
C         20.74929        44.52946        -2.19462
C         19.43862        43.93936        -2.56018
C         20.74940        45.69771        -1.26747
C         19.54218        46.37668        -1.29168
C         20.69625        47.84495         0.95192
C         19.42049        47.87345         0.26346
C         20.70977        48.68141         2.24237
C         19.36988        49.17851         2.74526
C         20.64286        51.22296         3.66385
C         19.34779        50.42064         3.56935
C         20.49707        52.59357         4.14501
C         19.31518        53.01694         4.77617
C         20.52999        54.83853         5.94405
C         19.37590        54.14364         5.69082
C         20.63350        55.77789         7.13263
C         23.69005         4.36489         2.21033
C         22.44966         5.00012         1.93530
C         23.60350         7.16682         1.66783
C         22.35746         6.38366         1.77368
C         23.55959         8.63453         1.89032
C         22.24480         9.31812         1.65877
C         23.50750        11.54410         1.35348
C         22.29295        10.70558         1.08643
C         23.52466        12.95258         1.32042
C         22.51996        13.82949         0.81683
C         23.47214        15.93619         1.69762
C         22.32118        15.18090         1.16499
C         23.55399        17.37506         1.83841
C         22.51471        18.27063         1.41546
C         23.48209        20.20575         2.47737
C         22.27908        19.48405         2.03967
C         23.33095        21.61714         2.91778
C         22.02434        22.29752         2.67531
C         23.30583        24.53277         2.40865
C         22.00360        23.74098         2.32158
C         23.25964        25.80067         1.55610
C         22.04596        26.39918         1.24166
C         23.27942        28.51387         0.30397
C         21.99769        27.81394         0.74923
C         23.24260        29.58822        -0.72981
C         21.98982        30.46474        -0.69508
C         23.13632        31.99716        -2.29311
C         21.94430        31.40232        -1.87101
C         23.10775        33.35581        -2.82805
C         21.89381        34.07601        -2.95458
C         23.09168        36.14828        -3.51729
C         21.87288        35.46153        -3.28044
C         23.07318        37.54135        -4.08514
C         21.69233        38.19148        -4.26440
C         23.57930        40.59787        -3.96601
C         21.58827        39.66351        -4.39561
C         23.35829        41.71788        -3.21595
C         22.15528        42.62913        -3.53411
C         23.19564        44.20100        -1.59286
C         22.06374        43.87554        -2.55715
C         23.21337        45.50990        -0.84336
C         21.95996        46.25009        -0.64397
C         23.10111        47.70895         1.05607
C         21.91676        47.33714         0.25680
C         23.15357        49.02483         1.76769
C         21.91813        49.52699         2.38435
C         23.01271        51.74755         2.62887
C         21.83903        50.79650         2.89053
C         22.90951        53.01713         3.47931
C         21.64228        53.47213         4.06081
C         23.00688        55.20723         5.41224
C         21.67776        54.69488         5.03775
C         23.12167        56.08624         6.52884
C         21.98878        56.43868         7.31286
C         23.38943        58.00138         8.55963
C         22.13735        57.39715         8.31167
C         24.88002         5.04801         2.28973
C         26.06676         7.32221         2.29693
C         24.95963         6.45819         1.92663
C         26.03056         8.72414         2.11333
C         24.80264         9.41971         1.82931
C         25.94260        11.55407         2.01053
C         24.73647        10.83566         1.77649
C         25.94451        13.03033         1.95790
C         24.58544        13.66045         2.14536
C         25.69053        15.77467         2.77306
C         24.61553        15.17593         2.06429
C         25.44906        17.05938         3.27912
C         24.55488        17.94323         2.67805
C         25.95405        20.16022         3.37513
C         24.75327        19.41963         2.79584
C         25.88676        21.66943         3.26563
C         24.60937        22.40417         2.96249
C         25.83918        24.43254         1.95500
C         24.54651        23.65206         2.07700
C         25.83743        25.67374         1.36114
C         24.56884        26.48043         1.31605
C         25.79184        28.30244        -0.12472
C         24.58298        27.83097         0.62937
C         25.58533        29.11953        -1.35280
C         24.36265        29.94833        -1.48699
C         25.49892        31.84603        -2.82518
C         24.36164        31.23942        -2.20779
C         25.55161        33.27326        -3.10669
C         24.32860        34.04067        -3.07866
C         25.53462        36.03268        -3.92821
C         24.32091        35.42287        -3.42842
C         25.45476        37.35761        -4.36268
C         24.39446        38.27509        -4.08939
C         25.96039        40.23769        -3.50942
C         24.68546        39.65009        -3.87946
C         25.93865        41.62536        -2.91746
C         24.62034        42.35309        -2.72370
C         25.75021        44.05008        -1.18233
C         24.48245        43.42548        -1.68572
C         25.63300        45.15394        -0.19912
C         24.38519        45.88327        -0.18395
C         25.63505        47.62272         1.18357
C         24.37014        46.99664         0.78056
C         25.63945        49.11965         1.39754
C         24.33796        49.64710         2.01765
C         25.64907        51.63551         2.85052
C         24.31681        50.91439         2.87802
C         25.87623        52.95612         3.07295
C         23.92455        53.94019         3.55280
C         25.46898        55.28973         5.01629
C         24.12204        54.87155         4.63287
C         25.53421        56.25962         6.04814
C         24.40222        56.67694         6.78739
C         24.50563        57.64513         7.82750
C         27.20720         9.48412         2.32608
C         28.35861        11.62899         2.61055
C         27.17152        10.88581         2.28628
C         28.38247        13.01141         2.71176
C         27.18917        13.79509         2.31345
C         28.21991        15.78232         3.64280
C         27.14440        15.30194         2.60679
C         28.36751        17.31817         3.66516
C         27.30166        18.13329         3.90592
C         28.46778        20.32396         3.67220
C         27.17100        19.57148         3.67650
C         28.48512        21.76186         3.20427
C         27.16684        22.47137         3.06383
C         28.41067        24.45268         1.92284
C         27.12160        23.83299         2.41417
C         28.28975        25.55574         0.93588
C         27.07659        26.23546         0.83522
C         28.10623        27.60232        -1.00473
C         27.05567        27.47548         0.02160
C         27.89343        28.45352        -2.11178
C         26.61081        29.09061        -2.28352
C         27.85673        31.66869        -3.55351
C         26.60039        31.09554        -3.30586
C         27.97931        33.09220        -3.50905
C         26.76208        33.86872        -3.49435
C         28.21643        35.95620        -3.96521
C         26.78601        35.25942        -3.99288
C         28.35184        37.40726        -3.79541
C         27.35977        38.30820        -4.17450
C         28.47696        40.27159        -3.13483
C         27.19429        39.59322        -3.57149
C         28.30169        41.36444        -2.11691
C         27.11046        42.03560        -2.07574
C         28.15839        43.63611        -0.40580
C         27.04774        43.31115        -1.32573
C         27.85432        44.51805         0.78679
C         26.73068        45.53050         0.56746
C         27.96327        47.33824         1.89074
C         26.76125        46.83197         1.22472
C         28.01120        48.61410         2.38887
C         26.91128        49.56627         2.11657
C         27.89021        51.11469         3.98450
C         26.89131        50.83010         2.88671
C         27.99406        52.60744         4.26256
C         26.95275        53.46481         3.91897
C         26.71491        54.70657         4.61268
C         29.55617        13.72519         3.05911
C         30.76528        15.80226         3.15518
C         29.55152        15.11376         3.27625
C         30.87434        17.21365         3.19911
C         29.68686        17.98075         3.60586
C         30.94748        20.11684         3.00704
C         29.73677        19.49446         3.57023
C         30.94005        21.54932         2.68937
C         29.68814        22.29902         2.55740
C         30.85449        24.11951         1.18232
C         29.71714        23.67113         2.02725
C         30.72342        25.25869         0.39864
C         29.46469        25.95007         0.19112
C         30.38462        27.07579        -1.90659
C         29.32155        26.90474        -0.84083
C         30.32479        28.41315        -2.63860
C         29.02456        28.78930        -2.94537
C         30.33706        31.37781        -3.53431
C         29.04132        30.88257        -3.72196
C         30.44905        32.83649        -3.47029
C         29.26920        33.65286        -3.50995
C         30.66030        35.74756        -3.57894
C         29.31210        35.14434        -3.26655
C         30.77562        37.22181        -3.33842
C         29.53215        37.98725        -3.19422
C         30.77767        39.86505        -2.19841
C         29.57785        39.30357        -2.78332
C         30.69637        41.13036        -1.48122
C         29.48099        41.81407        -1.38848
C         30.52254        43.38525         0.27129
C         29.35210        42.95042        -0.49168
C         30.43528        44.48762         1.12980
C         29.11945        45.08389         1.44911
C         30.41688        47.08715         2.45104
C         29.12687        46.45159         2.08131
C         30.40763        48.39319         2.96258
C         29.20213        49.15968         3.05278
C         29.17501        50.37778         3.72040
C         32.05179        17.89510         2.92946
C         33.26734        19.88074         2.19417
C         32.09317        19.32352         2.78041
C         33.31138        21.18827         1.70918
C         32.19927        22.12474         1.99385
C         33.20146        23.76451         0.45753
C         32.08905        23.35581         1.17063
C         33.30157        25.19150        -0.02567
C         31.93764        25.83449        -0.24153
C         32.86496        27.05582        -2.31658
C         31.75705        26.79445        -1.36322
C         32.78552        28.34635        -3.11005
C         31.50240        29.14637        -3.08710
C         32.86666        31.16881        -3.72732
C         31.51406        30.50771        -3.42939
C         32.92092        32.64952        -3.35528
C         31.74225        33.42944        -3.37809
C         33.21044        35.60576        -3.22948
C         31.88036        34.90464        -3.52233
C         33.06772        36.84906        -2.31102
C         32.04535        37.82879        -2.84024
C         33.21324        39.75036        -1.73828
C         31.95570        39.14593        -2.19666
C         33.12085        40.94221        -0.89371
C         31.87686        41.59408        -0.76736
C         32.95655        43.22344         0.74066
C         31.78028        42.73941         0.07393
C         32.85792        44.39751         1.52173
C         31.62591        45.05619         1.70148
C         31.58803        46.32201         2.36019
C         34.41304        21.66851         0.98159
C         35.53479        23.41972        -0.29263
C         34.40445        22.95627         0.39635
C         35.51546        24.59666        -1.09909
C         34.28302        25.37633        -1.17861
C         35.28658        26.83679        -2.95174
C         34.16032        26.38732        -2.09308
C         35.31266        28.29927        -3.25141
C         34.10403        28.98871        -3.30125
C         35.35729        31.14390        -3.26235
C         34.03885        30.46219        -3.03403
C         35.39693        32.53158        -3.07226
C         34.16247        33.24936        -3.07535
C         35.47312        35.25586        -2.11836
C         34.20027        34.64869        -2.61455
C         35.54512        36.72687        -1.93429
C         34.41549        37.48351        -2.03553
C         35.63821        39.41205        -0.94211
C         34.48306        38.93125        -1.73913
C         35.52770        40.63309        -0.28465
C         34.29592        41.38786        -0.20663
C         34.19465        42.54309         0.58519
C         36.63140        24.96948        -1.82677
C         37.83026        26.92038        -2.80608
C         36.60932        26.11947        -2.73596
C         37.83984        28.27772        -3.06005
C         36.59292        28.98675        -3.34997
C         37.73138        31.20938        -3.65910
C         36.55556        30.41311        -3.46319
C         37.87407        32.49636        -3.12689
C         36.66020        33.20328        -2.82370
C         37.96851        35.18155        -2.13030
C         36.71831        34.51260        -2.33779
C         37.99301        36.51226        -1.64991
C         36.82077        37.31038        -1.52182
C         36.81764        38.60408        -0.96923
C         39.11736        28.93857        -2.73798
C         40.59655        31.02031        -2.81547
C         39.55119        30.11480        -3.26781
C         40.40876        32.37011        -2.75047
C         39.15390        33.11581        -2.82817
C         39.16489        34.42635        -2.35523
O         11.29335        29.78901         0.36235
O         20.73446        47.24711         2.30867
O         12.44070        40.14844        -4.18034
O         24.78723        27.73320         2.05946
O         20.76950        32.17941        -3.87836
O         19.07724        38.87744        -5.08045
O         22.68531        40.25995        -4.97646
O         25.11777        22.38094         4.30671
O         28.65237        21.37992         4.64553
O         29.33485        24.73806         3.00221
O         19.20908        19.41726         3.71490
O         11.62310        24.82488        -1.65726
O         31.98020        22.34021         3.39860
O         23.53987        46.62621         1.97529
O         14.88336        21.96366        -0.30036
O         11.51211        27.35011        -2.21269
O         26.80100        13.56584         0.90013
O         31.28481        35.32248        -4.81710
O         26.68136        44.44377        -2.24208
O         26.86084        28.74760         0.75853
O         22.37676        37.53619        -5.37777
O         22.73757         9.13026         3.02051
O         25.50843        42.68785        -3.83616
O         19.53153        47.75794        -1.11903
O         22.48808        21.91394         4.05267
O          8.67497        33.37774        -3.47795
O         18.69798        24.27449         3.24409
O         17.76384        41.42232        -4.72989
O         18.54829        48.10825         3.34616
O         35.80248        25.93332        -3.96550
O         27.14626        23.68220         3.86964
O         21.58389        17.82190         0.47703
O         17.42266        26.45483         2.22083
O         24.54531        20.05828         1.47407
O         14.97869        28.10584         1.10394
O         27.65044        35.42616        -5.16576
O         26.41191        29.72539        -3.51772
O          8.77247        32.03641        -0.13876
O         28.87829        45.24139         2.89663
O         38.79767        30.63275        -4.34425
O         23.49450        43.07411        -0.67391
O         14.41982        39.11788        -1.35916
O         21.58823        13.33397        -0.12552
O         26.47127        37.89027        -5.16530
O         18.00356        17.22788         3.69311
O         34.18425        39.82457        -2.86925
O         24.95500        53.89319         2.61464
O         20.35667        29.63418         0.97486
O         24.44135         6.79078         0.56735
O         29.97516        18.76660         4.83024
O         21.65639        10.67875        -0.22094
O         27.47567        50.81107         1.53015
O         32.01667        27.30828        -0.02307
O         28.83502        29.55607        -4.10856
O         19.99242        42.76467        -4.71744
O         31.75067        37.83637        -4.26706
O         18.67611        30.93502        -3.39998
O         26.14332        17.51902         4.38381
O         21.32236        54.84895         3.63738
O         20.21138        50.28149         4.72751
O         22.63011        28.83489         1.57879
O         18.76917        21.89048         3.76214
O         21.62320        45.00311        -3.35019
O         34.46563        34.68418        -1.16249
O         32.53772        27.04038        -3.74641
O         24.25219        13.37187         3.54244
H         23.41753        13.83417         3.76649
O         33.74801        30.57711        -1.59888
H         34.55037        30.31977        -1.09815
O         23.49227        24.95679         3.77228
H         22.71742        25.48757         4.05079
O         27.27886        50.53310         5.19886
H         27.92417        50.61528         5.93288
O         24.21699        50.48843         4.26867
H         25.09291        50.15954         4.57182
O         25.67510        49.67601         0.05155
H         26.32429        50.42076         0.07649
O         33.09454        31.08518        -5.15225
H         32.38069        31.57545        -5.61107
O         16.76420        46.23940         1.34880
H         17.01636        46.60844         2.22431
O         22.95104        52.12500         1.23943
H         23.60339        52.84613         1.09981
O         22.16564        31.33923         0.45644
H         22.06452        30.76069         1.25396
O         32.49775        36.42502        -1.04317
H         33.15159        35.80185        -0.63104
O         28.98596        40.96231        -4.32482
H         29.21171        40.28715        -4.99971
O         16.40440        19.43382         0.17554
H         15.81191        20.00223        -0.36772
O         29.07069        35.36528        -1.84401
H         29.74273        34.87170        -1.32775
O         33.93527        25.89781         1.08455
H         33.53057        26.79548         1.11815
O         13.32372        21.41039         3.00122
H         12.54602        20.95772         3.39078
O         27.28649        43.57150         1.75019
H         27.46967        43.94554         2.64490
O         30.11169        26.04614        -2.90647
H         30.76606        26.18339        -3.63439
O         19.60557        56.77793         7.05760
H         19.73152        57.28306         6.22827
O         33.80548        36.01445        -4.46990
H         33.09650        36.46630        -4.98984
O         27.81529        15.30102         4.93251
H         28.38546        15.71137         5.61504
O         27.54028        15.97724         1.38605
H         27.20596        15.42916         0.63639
O         22.49710        43.16372        -4.80844
H         21.72385        43.67939        -5.13330
O         13.07896        32.87564        -4.04943
H         12.20314        32.46147        -4.20568
O         24.31610        23.09476         0.74696
H         24.15009        23.83410         0.12455
H          4.71998        31.42397        -1.58317
H          4.69364        33.84919        -1.83404
H          7.32276        27.17699        -0.76274
H          6.03563        29.24060        -1.27813
H          5.98240        36.07342        -2.07201
H          7.23861        38.17534        -2.23219
H          9.98646        23.07142         0.60880
H          8.63053        25.09522        -0.19847
H          8.47662        40.30112        -2.19973
H          9.78409        42.44475        -2.10064
H         12.58085        18.92942         1.64700
H         11.25482        21.04005         1.01230
H         11.09084        44.51782        -1.71197
H         12.40958        46.48100        -1.01329
H         15.29216        14.79558         2.52328
H         13.89714        16.82786         1.76376
H         13.65749        48.32110        -0.06109
H         14.86423        49.88323         1.45749
H         17.70950        10.69390         2.20393
H         16.54206        12.80196         2.62125
H         15.97732        51.28722         3.19069
H         17.14530        52.79123         4.80768
H         20.20089         6.47889         1.57678
H         18.86961         8.52144         1.64356
H         18.49334        54.33086         6.32130
H         20.41844        55.18660         8.06553
H         23.67750         3.29190         2.45001
H         21.52880         4.40088         1.95443
H         23.47343        58.75374         9.35623
H         21.26450        57.68633         8.91353
H         25.77984         4.55511         2.68445
H         26.97362         6.86957         2.72489
H         26.51932        56.65594         6.33968
H         25.48088        58.10776         8.03623
H         28.14988         8.96810         2.55702
H         29.26560        11.06087         2.86601
H         28.71591        52.92655         5.03255
H         27.58681        55.09691         5.16639
H         30.51866        13.18971         3.04643
H         31.66596        15.21952         2.90465
H         31.34713        48.83322         3.32935
H         30.10290        50.75292         4.17964
H         32.95945        17.32414         2.68362
H         34.11998        19.21516         1.99671
H         33.76397        44.81672         1.98369
H         32.53541        46.75151         2.71939
H         35.30102        21.03021         0.86609
H         36.44611        22.80341        -0.29034
H         36.39700        41.02232         0.26771
H         35.08162        42.92306         1.11347
H         37.58544        24.44505        -1.66381
H         38.75795        26.44557        -2.45094
H         38.96585        36.96461        -1.40472
H         37.74670        39.00516        -0.53596
H         39.73406        28.44527        -1.97137
H         41.56627        30.60312        -2.50261
H         41.27062        32.97317        -2.42010
H         40.12958        34.89304        -2.10254
