         429
 CSIRO Nanostructure Databank - Neutral Graphene Oxide Data Set
C          1.70378         3.55171         2.37806
C          0.52849         4.24434         2.62804
C          1.53389         6.33660         1.83663
C          0.43921         5.61666         2.36818
C          1.48090         7.75548         1.60510
C          0.26777         8.48927         1.83562
C          1.41195        10.62444         1.41872
C          0.21201         9.84344         1.73730
C          1.28676        12.09263         1.09130
C         -0.00112        12.81478         0.99775
C          1.18999        14.88098         0.36548
C         -0.02357        14.11538         0.62614
C          1.15065        16.30188         0.17027
C         -0.06611        17.03714         0.14649
C          1.12960        19.10989        -0.31836
C         -0.07320        18.39608        -0.08844
C          1.09206        20.51869        -0.78148
C         -0.11356        21.36884        -0.66272
C          1.15475        23.37109        -1.41259
C         -0.09117        22.67034        -1.01098
C          1.16522        24.91488        -1.57963
C         -0.08044        25.66673        -1.42395
C          1.12664        27.75514        -1.00476
C         -0.06934        27.00093        -1.09165
C          1.12282        29.16447        -0.74427
C         -0.09054        29.90109        -0.69032
C          1.12514        31.97982        -0.36664
C         -0.08054        31.27789        -0.56261
C          1.10111        33.48882        -0.43275
C         -0.03095        34.17580         0.28913
C          1.24002        36.28784         0.38461
C          0.03375        35.50276         0.56557
C          1.26294        37.57361         0.99925
C          4.04351         3.54561         1.60661
C          2.83079         4.22901         1.83596
C          3.86023         6.30109         0.96567
C          2.74572         5.63050         1.55161
C          3.81981         7.73857         0.76180
C          2.64221         8.45530         1.14635
C          3.76929        10.54770         0.54159
C          2.62708         9.87548         1.00182
C          3.68466        11.97584         0.15437
C          2.40848        12.72657         0.32969
C          3.65532        14.89275         0.14979
C          2.41785        14.20605         0.28719
C          3.61355        16.30142         0.09794
C          2.37972        17.01187         0.01074
C          3.61445        19.17281        -0.28971
C          2.36256        18.42989        -0.23247
C          3.61833        20.55758        -0.43486
C          2.42230        21.27378        -0.86786
C          3.58870        23.48506        -0.87566
C          2.43045        22.75212        -0.98765
C          3.62135        24.92317        -1.12151
C          2.43273        25.61834        -1.34315
C          3.64402        27.79170        -0.89188
C          2.41826        27.12396        -1.46362
C          3.62266        29.15247        -0.59591
C          2.35586        29.87456        -0.56214
C          3.59581        31.95784         0.16008
C          2.33930        31.26959        -0.32643
C          3.62629        33.44715        -0.07958
C          2.42091        34.14681        -0.11957
C          3.67291        36.19860        -0.19864
C          2.41798        35.57195        -0.03694
C          3.67472        38.10674         0.83453
C          2.36657        38.34711         1.35133
C          6.39793         3.51711         0.91461
C          5.14837         4.20287         1.03699
C          6.11788         6.21450        -0.10896
C          5.02296         5.57558         0.65045
C          6.07941         7.71379        -0.42525
C          4.94690         8.43404         0.27614
C          6.17439        10.56935        -0.17596
C          4.96311         9.84359         0.22154
C          6.14430        12.00616        -0.22947
C          4.93675        12.73633        -0.02100
C          6.15623        14.84005        -0.12373
C          4.91653        14.14553         0.02339
C          6.19200        16.29480         0.13979
C          4.85659        17.06934         0.24068
C          6.08628        19.19715        -0.09654
C          4.86217        18.50119        -0.03708
C          6.11579        20.62471        -0.16628
C          4.82975        21.33229        -0.13436
C          6.12345        23.49110        -0.56516
C          4.82238        22.83899        -0.35378
C          6.12779        24.91720        -0.88454
C          4.88124        25.61885        -1.08291
C          6.09955        27.74611        -0.94528
C          4.89181        27.06097        -0.99605
C          6.15533        29.11044        -0.32947
C          4.86127        29.88195        -0.40152
C          6.11792        31.99645        -0.15124
C          4.87890        31.25197        -0.20874
C          6.12375        33.39409        -0.01625
C          4.87754        34.12986         0.00385
C          6.15605        36.38819        -0.02637
C          4.89480        35.54457        -0.05905
C          6.11226        37.59237         0.94735
C          4.90921        38.21742         1.44897
C          8.78150         3.48508         0.31989
C          7.54268         4.14229         0.42710
C          8.67324         6.25612        -0.47390
C          7.43317         5.49850        -0.15665
C          8.62293         7.63740        -0.64618
C          7.43093         8.40077        -0.09929
C          8.55383        10.59559        -0.83806
C          7.38185         9.88534        -0.43345
C          8.53310        12.00027        -0.85522
C          7.34958        12.71837        -0.50387
C          8.58174        14.87939        -0.68091
C          7.34066        14.15037        -0.44085
C          8.53198        16.35855        -0.73516
C          7.35751        17.07560        -0.24035
C          8.55135        19.23812        -0.24304
C          7.33267        18.47809        -0.19398
C          8.57242        20.62866        -0.21961
C          7.31681        21.34444        -0.26758
C          8.60932        23.46280        -0.81449
C          7.30172        22.77313        -0.47092
C          8.58127        24.93132        -0.37466
C          7.33256        25.60418        -0.88953
C          8.63379        27.76915        -1.26091
C          7.32468        27.00785        -1.43088
C          8.63936        29.26835        -0.97136
C          7.36873        29.93931        -0.65817
C          8.62243        32.01075        -0.23996
C          7.37057        31.29063        -0.35802
C          8.61358        33.41105         0.00909
C          7.36857        34.13414         0.04737
C          8.61306        36.19154         0.50485
C          7.38844        35.53323         0.20897
C          8.58853        37.55582         0.98877
C          7.31716        38.14244         1.32147
C         11.12968         3.40387        -0.37689
C          9.89998         4.12447        -0.26386
C         11.05310         6.06781        -1.36541
C          9.85618         5.49484        -0.64830
C         11.06068         7.60191        -1.48069
C          9.74084         8.34201        -1.31707
C         11.09416        10.54685        -1.74974
C          9.73446         9.84770        -1.40407
C         11.04972        12.06219        -1.48939
C          9.75162        12.77249        -1.20043
C         11.05001        14.97098        -1.24116
C          9.76652        14.22737        -0.90048
C         11.11077        16.37070        -0.65461
C          9.85607        17.11921        -0.70983
C         11.10557        19.19819         0.08290
C          9.80103        18.47061        -0.10379
C         11.08847        20.66336         0.02107
C          9.83677        21.36663        -0.12630
C         11.04872        23.53805        -0.08004
C          9.82396        22.75028        -0.27081
C         11.08119        24.95392        -0.52379
C          9.88086        25.64182        -0.70821
C         11.07836        27.77974        -0.92889
C          9.87866        27.05067        -0.96617
C         11.11434        29.19873        -0.71853
C          9.90134        29.90799        -0.57273
C         11.07316        31.99561         0.00536
C          9.85354        31.30228        -0.23789
C         11.08344        33.37669         0.13766
C          9.85243        34.09989         0.15399
C         11.08044        36.18770         0.72915
C          9.84889        35.50068         0.44684
C         11.03908        37.57639         1.10082
C          9.77278        38.21855         1.26387
C         13.61484         3.29702        -0.56839
C         12.32747         4.07384        -0.59266
C         13.54257         6.22776        -0.69227
C         12.34205         5.46953        -0.83779
C         13.56098         7.61564        -0.88217
C         12.36455         8.37163        -1.31644
C         13.49417        10.57713        -0.96255
C         12.32877         9.85744        -1.16416
C         13.54472        12.02522        -0.99142
C         12.32001        12.78155        -1.16790
C         13.54865        14.91050        -0.92322
C         12.28371        14.14262        -0.94220
C         13.56148        16.24267        -0.19980
C         12.29319        17.03795        -0.38222
C         13.56633        19.17376        -0.17213
C         12.34475        18.45859        -0.17982
C         13.55323        20.59629        -0.08927
C         12.33377        21.31708        -0.03987
C         13.62331        23.49717        -0.33265
C         12.36889        22.79244         0.02508
C         13.57694        24.91108        -0.61740
C         12.34839        25.58855        -0.74257
C         13.64211        27.79343        -0.98550
C         12.33368        27.02564        -1.06535
C         13.59791        29.20610        -0.54091
C         12.38325        29.85790        -0.42976
C         13.57778        31.96671         0.35169
C         12.29677        31.17622         0.31605
C         13.59804        33.32862         0.48439
C         12.38811        34.13437         0.06602
C         13.52454        36.19592         0.94211
C         12.32477        35.51650         0.66381
C         13.48692        37.61196         1.21275
C         12.23635        38.27078         1.30571
C         15.89198         3.48007         0.41230
C         14.77611         4.13470        -0.10160
C         15.90436         6.29157         0.14667
C         14.75093         5.54557        -0.22945
C         15.95757         7.70537        -0.04939
C         14.82291         8.35345        -0.72327
C         15.95105        10.60142        -0.20785
C         14.80316         9.87489        -0.80291
C         15.94248        12.02998        -0.31761
C         14.78835        12.69415        -0.81949
C         16.16807        14.90985        -0.90334
C         14.84562        14.15938        -1.03238
C         16.05158        16.34240        -0.41554
C         14.83659        17.03749        -0.36549
C         16.05021        19.17977        -0.26621
C         14.81670        18.44884        -0.24005
C         16.06871        20.59426        -0.27686
C         14.84054        21.35518         0.15101
C         16.07108        23.47014        -0.54972
C         14.81360        22.79189        -0.32963
C         16.07718        24.89622        -0.64167
C         14.83986        25.62826        -0.70671
C         16.12535        27.81469        -0.92275
C         14.86655        27.02180        -0.75762
C         16.05687        29.14259        -0.17339
C         14.85231        29.79582        -0.07050
C         16.08144        31.89333         0.79903
C         14.79662        31.15100         0.54932
C         16.02248        33.35974         0.88991
C         14.82804        34.04939         0.80386
C         15.96351        36.22244         1.22577
C         14.79320        35.50194         0.98482
C         15.94636        37.67463         1.27215
C         14.68971        38.33145         1.32216
C         18.18261         3.53041         1.35159
C         17.03389         4.19934         0.82425
C         18.19945         6.35967         1.05920
C         17.04076         5.61628         0.68580
C         18.21587         7.77659         0.92708
C         17.07057         8.46292         0.37376
C         18.14452        10.66544         1.00541
C         17.04775         9.89935         0.30330
C         18.30434        12.07553         0.49667
C         17.16827        12.76101        -0.00961
C         18.46330        14.86476         0.03307
C         17.25765        14.15202        -0.20638
C         18.48355        16.29958        -0.03625
C         17.28502        17.03551        -0.21556
C         18.50546        19.19689        -0.28536
C         17.28483        18.47074        -0.21948
C         18.50574        20.55463        -0.62958
C         17.27394        21.28297        -0.55382
C         18.52904        23.42806        -0.92227
C         17.26339        22.71469        -0.65468
C         18.57421        24.84888        -0.44778
C         17.31915        25.63512        -0.62091
C         18.67446        27.75582        -0.83504
C         17.37170        27.00528        -0.68539
C         18.63458        29.10040        -0.09896
C         17.33814        29.77219         0.25771
C         18.56116        31.94481         0.59940
C         17.38074        31.23900         0.52720
C         18.56835        33.38435         0.82828
C         17.28925        34.03734         1.21470
C         18.53738        36.28367         1.33317
C         17.24817        35.52164         1.43852
C         18.45698        37.80422         1.23205
C         17.12671        38.42305         1.24016
C         19.30124         4.24263         1.70585
C         20.50515         6.39658         1.89822
C         19.34034         5.66137         1.56057
C         20.53939         7.76396         1.73955
C         19.40659         8.49073         1.26714
C         20.64771        10.63230         1.22998
C         19.44512         9.90974         1.11795
C         20.70313        12.00126         1.04067
C         19.54780        12.74601         0.63616
C         20.90363        14.85522         0.40083
C         19.64606        14.14626         0.36562
C         20.96415        16.21025         0.33796
C         19.73013        17.00713         0.29604
C         21.00959        19.29534        -0.01468
C         19.75552        18.52908         0.13430
C         21.01994        20.52646        -0.54521
C         19.79768        21.15523        -1.17584
C         21.08395        23.44239        -0.96878
C         19.80917        22.69268        -1.15101
C         21.12024        24.75045        -0.66239
C         19.89859        25.53499        -0.35102
C         21.08207        27.73720        -0.12197
C         19.91790        27.00764        -0.40607
C         21.11280        29.11729        -0.06455
C         19.88419        29.95522        -0.30713
C         21.02301        32.13034         0.13778
C         19.89935        31.22345         0.57010
C         20.93241        33.47045         0.19634
C         19.71490        34.14571         0.62751
C         20.80623        36.38156         0.41478
C         19.72580        35.60093         0.77935
C         20.73130        37.80940         0.32516
C         19.59211        38.49710         0.61805
O          2.71165        12.13251        -0.97653
O         14.18377        14.73145        -2.22650
O         18.80289        37.11259         2.50189
O          9.10240        16.97050        -1.94630
O         18.13061        28.98567         1.24472
O          4.65016        22.27525         0.99452
O         10.25965        12.63344        -2.60410
O         15.34353        31.21673         1.90989
O         19.60620        17.92426         1.46232
O         11.82210         7.97672        -2.64516
O         13.04841        27.45600        -2.29670
O          5.62019        16.67406         1.43259
O         10.36933        18.57241         1.23559
O          3.69283        37.57448        -0.47918
O         17.26278        34.59781         2.58463
O          8.76400        28.73378        -2.35725
O          1.15937        23.98033        -2.72218
O          9.29053         9.02642        -2.53778
O          6.49694         5.46064        -1.31461
O          1.78730        20.67033        -2.05840
O          1.68496        11.68611         2.44218
O         11.71408        23.33170         1.22247
O         19.04632        23.24051        -2.30127
O         19.18713        25.01011         0.86921
O         15.18714         9.08232        -1.96565
O         16.69204        15.05527        -2.26839
H         15.90877        15.20617        -2.84892
O          0.87192        33.76660        -1.86679
H          0.82259        34.74129        -1.96915
O         17.67106        10.81079         2.41413
H         18.35565        11.32445         2.89434
O         18.84170        28.01264        -2.27288
H         17.93125        28.11268        -2.65584
O         11.29852        10.41523        -3.16664
H         10.59640        10.93702        -3.61384
O          7.53781         8.32408         1.36265
H          8.31590         8.84850         1.64502
O         19.89007        30.41030        -1.68257
H         19.72136        29.61303        -2.24798
O          8.48046        24.90559         1.07848
H          8.34854        25.82033         1.40379
O          7.12858        26.84459        -2.87650
H          7.51443        27.64587        -3.30237
O         10.93175         5.57033        -2.73874
H         11.40466         6.21627        -3.31402
O         16.16132        28.21466        -2.37053
H         15.27907        28.02014        -2.76130
O         11.06296        15.19241        -2.68137
H         10.84526        14.32383        -3.10177
O          6.34340        28.81096         1.13351
H          6.26019        29.66585         1.61092
O         19.83569        20.76556        -2.57909
H         19.33415        21.45823        -3.07051
O          2.48463        27.40641        -2.91935
H          2.49213        28.38116        -3.03084
O          5.81551         7.87458        -1.82805
H          6.14941         7.06200        -2.27819
O         12.60322        34.36227        -1.37879
H         11.86341        34.92059        -1.70093
O          6.31918        36.97178        -1.35468
H          5.50983        37.50808        -1.51831
O          3.52838        31.83572         1.63502
H          3.43601        30.88108         1.84265
O         13.49863         2.10386         0.21358
H         13.32548         2.36075         1.14210
O         12.09571        30.76851         1.72298
H         12.97805        30.57857         2.11196
O         14.95256        21.45014         1.62231
H         14.17932        21.96265         1.94473
O          8.74196        23.46618        -2.26396
H          8.62259        22.54971        -2.58944
O         13.54924        15.83518         1.21471
H         13.48536        16.64778         1.76129
O         20.19234        30.78369         1.92033
H         20.01863        31.52979         2.53127
H          1.77579         2.47634         2.59360
H         -0.34141         3.71732         3.04422
H         -0.50397         6.12834         2.59890
H         -0.64662         7.94589         2.10777
H         -0.72232        10.37484         1.96315
H         -0.93630        12.29967         1.25878
H         -0.99275        14.62972         0.57398
H         -1.02576        16.52225         0.28311
H         -1.03613        18.92242        -0.13870
H         -1.05499        20.91737        -0.31724
H         -1.02709        23.24631        -0.97965
H         -1.03760        25.15994        -1.60378
H         -1.03557        27.49633        -0.92073
H         -1.05252        29.39131        -0.82922
H         -1.02844        31.83046        -0.61850
H         -0.96330        33.62463         0.48024
H         -0.83341        36.00272         1.02498
H          0.30013        37.88963         1.43472
H          4.12760         2.48393         1.88104
H          2.23321        39.11635         2.12685
H          6.45993         2.47523         1.26269
H          4.98713        38.77248         2.39677
H          8.87545         2.44501         0.66583
H          7.32362        39.07392         1.90887
H         11.14771         2.32769        -0.15320
H          9.74645        39.25127         1.64182
H         13.83033         2.95957        -1.62183
H         12.21064        39.34528         1.53875
H         15.87460         2.38377         0.49854
H         14.65950        39.42375         1.44613
H         18.15917         2.43620         1.45567
H         17.05949        39.52030         1.18770
H         20.18849         3.72638         2.10017
H         21.38451         5.86246         2.28586
H         21.45510         8.30186         2.01808
H         21.58788        10.10326         1.43767
H         21.66984        12.50737         1.15316
H         21.84070        14.28840         0.48419
H         21.93247        16.72500         0.40838
H         21.93141        18.86738         0.40601
H         21.97788        21.06119        -0.61643
H         22.02871        22.92380        -1.18784
H         22.09055        25.26735        -0.62552
H         22.00621        27.18690         0.11308
H         22.06099        29.61793         0.17758
H         21.96987        31.66650        -0.17408
H         21.80644        34.07266        -0.08427
H         21.73685        35.91781         0.06292
H         21.59884        38.34243        -0.08934
H         19.50441        39.56976         0.39252
