         621
 CSIRO Nanostructure Databank - Neutral Graphene Oxide Data Set
C          5.76957        31.64752         0.63857
C          5.80407        33.01201         0.73005
C          8.16397        27.35165         0.38483
C          8.12185        28.71709         0.11939
C          6.94637        29.48932         0.33836
C          8.16105        31.61929         0.04959
C          6.94704        30.88884         0.30966
C          8.21848        32.98829         0.24355
C          7.03061        33.74638         0.55820
C          8.23585        35.91098         0.41516
C          7.04531        35.14557         0.59671
C          8.24346        37.29042         0.25100
C         10.63938        23.11548         1.12179
C         10.59272        24.47488         0.82031
C          9.38604        25.23341         0.74137
C         10.64180        27.28586         0.20290
C          9.37852        26.58917         0.38930
C         10.65424        28.67981        -0.28967
C          9.33194        29.39881        -0.41492
C         10.63709        31.62336        -0.74676
C          9.33269        30.90115        -0.51196
C         10.74348        33.03508        -0.27745
C          9.52862        33.67235         0.26986
C         10.74965        35.90553         0.06341
C          9.52398        35.18692         0.42094
C         10.71550        37.31551        -0.00551
C          9.46375        38.03435         0.07748
C         10.68320        40.16731        -0.19272
C          9.46652        39.42746        -0.05418
C         10.69978        41.58692        -0.27354
C         13.18891        18.89941         1.22402
C         13.10213        20.26603         1.54444
C         11.89389        20.99078         1.48288
C         13.09314        23.13038         1.39636
C         11.87306        22.41158         1.36234
C         13.17462        24.45821         0.80254
C         11.85159        25.17554         0.50119
C         13.09711        27.41027         0.46163
C         11.83644        26.63900         0.37970
C         13.13758        28.78694        -0.08858
C         11.93462        29.42738        -0.34898
C         13.23742        31.56545        -0.90442
C         11.91513        30.81705        -0.84928
C         13.18537        33.13370        -0.98389
C         11.92315        33.73989        -0.33861
C         13.17273        35.89935        -0.24273
C         11.95104        35.17549        -0.11013
C         13.15888        37.29466        -0.27410
C         11.93789        38.03275        -0.16480
C         13.16971        40.21765        -0.16355
C         11.91786        39.45116        -0.19276
C         13.12761        41.61847        -0.55461
C         11.89778        42.32589        -0.49703
C         13.12688        44.48357        -0.54926
C         11.92702        43.76066        -0.48082
C         13.24290        45.84871        -0.19207
C         15.81074        14.87879         0.13434
C         15.74819        16.23723         0.50781
C         14.50660        16.88455         0.73910
C         15.67544        18.96515         1.33121
C         14.44131        18.23592         1.11592
C         15.64480        20.32263         1.71963
C         14.34280        20.95524         1.93593
C         15.60503        23.20841         1.72481
C         14.31981        22.53428         1.89883
C         15.60900        24.59275         1.31787
C         14.40797        25.23211         0.93973
C         15.65209        27.36179         0.36917
C         14.39836        26.68753         0.72351
C         15.65503        28.72264         0.01848
C         14.41463        29.45896        -0.17264
C         15.70529        31.52755        -0.41157
C         14.46314        30.84699        -0.44490
C         15.71371        32.96457        -0.51625
C         14.42826        33.64359        -0.10637
C         15.60056        35.80038        -0.92978
C         14.51071        35.19529        -0.04304
C         15.65019        37.29655        -0.92044
C         14.40633        38.03641        -0.58420
C         15.69718        40.19868        -0.77584
C         14.51144        39.48669        -0.26203
C         15.64143        41.56414        -1.02206
C         14.33741        42.25621        -1.02332
C         15.65897        44.44901        -0.89254
C         14.35058        43.81279        -1.02384
C         15.71070        45.79883        -0.50611
C         14.48747        46.50732        -0.18167
C         15.80467        48.53407         0.25539
C         14.57642        47.87895         0.17838
C         15.87729        49.91264         0.64973
C         18.36681        10.80465        -0.95643
C         18.28908        12.17155        -0.61070
C         17.08695        12.85018        -0.42500
C         18.23972        15.03980        -0.12602
C         17.04260        14.25557        -0.15217
C         18.21469        16.35895         0.36785
C         16.97062        16.96962         0.68250
C         18.14452        19.01723         1.41238
C         16.93074        18.32008         1.13972
C         18.10985        20.39746         1.76979
C         16.85015        21.06767         1.85472
C         18.06393        23.22493         1.94335
C         16.82285        22.50948         1.88576
C         18.04738        24.70314         1.81613
C         16.82502        25.30152         1.26354
C         18.21913        27.22711         0.29868
C         16.88682        26.56936         0.52737
C         18.17786        28.64034        -0.20034
C         16.90856        29.39651        -0.20708
C         18.19439        31.50840        -0.43803
C         16.94082        30.79314        -0.37256
C         18.20055        33.01758        -0.38236
C         16.88858        33.65670        -0.69149
C         18.18357        35.84061        -1.16623
C         16.89992        35.07951        -1.06692
C         18.19779        37.23126        -1.12787
C         16.97794        37.96846        -0.76579
C         18.17898        40.11968        -1.41813
C         16.98891        39.47544        -0.81099
C         18.00647        41.55141        -1.88170
C         16.82198        42.30359        -1.32834
C         18.11071        44.42060        -1.27010
C         16.85464        43.71165        -1.19870
C         18.16908        45.81380        -0.89901
C         16.96948        46.47769        -0.46747
C         18.27973        48.48829         0.08977
C         17.02505        47.83112        -0.05534
C         18.30808        49.83102         0.57477
C         17.07903        50.55358         0.81436
C         18.42462        52.61897         1.49426
C         17.06146        51.99705         1.28433
C         18.54938        53.94582         1.78259
C         20.91051         7.08330        -2.96069
C         20.86254         8.34868        -2.35738
C         19.64655         8.94359        -1.92763
C         20.84426        10.94996        -1.09996
C         19.59731        10.22494        -1.34585
C         20.82537        12.24890        -0.58929
C         19.54340        12.95550        -0.69616
C         20.77644        15.32760        -0.58764
C         19.51150        14.44991        -0.59138
C         20.69954        16.40704         0.48192
C         19.45143        17.05114         0.66808
C         20.61205        18.99806         1.62570
C         19.40104        18.34199         1.26389
C         20.58371        20.39891         1.96666
C         19.33337        21.11719         1.97126
C         20.51517        23.31005         2.36953
C         19.27921        22.54285         2.08093
C         20.61885        24.75203         2.03763
C         19.35304        25.46802         1.74203
C         20.63644        27.44134         0.96649
C         19.44326        26.74411         0.98952
C         20.69340        28.78972         0.41075
C         19.47703        29.39961        -0.17566
C         20.65744        31.58729        -0.32447
C         19.41330        30.86479        -0.30243
C         20.66229        32.92117        -0.96347
C         19.36308        33.65071        -1.12580
C         20.62763        35.82019        -1.54959
C         19.40650        35.12136        -1.26248
C         20.64237        37.19789        -1.67330
C         19.49620        38.01578        -1.12902
C         20.49791        40.14526        -2.30682
C         19.32128        39.42692        -1.70802
C         20.45976        41.62991        -2.19996
C         19.30161        42.30305        -1.75161
C         20.52174        44.46200        -1.88993
C         19.29571        43.70153        -1.58544
C         20.55238        45.92234        -1.56936
C         19.39647        46.52318        -0.87981
C         20.76984        48.44146        -0.04655
C         19.49906        47.82108        -0.28533
C         20.75685        49.66325         0.69632
C         19.55396        50.39336         0.90279
C         20.96973        52.44339         1.56102
C         19.61822        51.74525         1.50665
C         21.03050        53.90074         1.72908
C         19.83112        54.60680         1.98168
C         21.15577        56.57973         2.56573
C         19.91549        55.95636         2.38072
C         21.17016        57.98832         3.13385
C         23.40572         4.66672        -4.38912
C         22.18549         5.22399        -3.98396
C         23.37519         7.20020        -3.16316
C         22.14285         6.49324        -3.36927
C         23.36685         8.48355        -2.54958
C         22.09938         9.07120        -2.13056
C         23.33423        10.93001        -1.08976
C         22.06668        10.29549        -1.48562
C         23.30543        12.25589        -0.41997
C         22.03844        13.04949        -0.23130
C         23.05524        14.75028         0.56004
C         22.15146        14.53824        -0.68848
C         23.01873        16.06297         1.30656
C         21.84004        16.93530         1.11135
C         23.08141        18.90875         1.99669
C         21.82979        18.26235         1.62961
C         23.06132        20.36090         2.16587
C         21.81172        21.05971         2.16890
C         23.05749        23.26157         2.26637
C         21.81581        22.50802         2.43438
C         23.03182        24.67393         2.37778
C         21.80492        25.45206         2.15696
C         23.03439        27.83025         1.77577
C         21.79949        26.93383         1.79750
C         23.12991        28.82161         0.61932
C         21.84344        29.57325         0.43483
C         23.08397        31.76932         0.18334
C         21.83727        30.96356         0.05990
C         23.11531        33.18101        -0.32963
C         21.87475        33.78439        -0.88945
C         23.17384        35.84933        -1.45448
C         21.92239        35.02452        -1.76789
C         23.14050        37.19624        -1.69002
C         21.88247        37.81391        -2.28967
C         23.15208        40.08464        -2.22140
C         21.87153        39.35792        -2.41163
C         23.33840        41.36293        -2.70591
C         21.53686        42.43633        -2.65791
C         23.06093        44.40239        -2.23915
C         21.77830        43.75172        -2.22260
C         23.12339        45.80622        -1.91864
C         21.88309        46.60497        -1.58172
C         23.35863        48.43511        -0.70676
C         21.97661        47.89424        -0.78197
C         23.74943        49.41193         0.16532
C         21.97886        50.31819         1.12237
C         23.44890        52.37910         0.90904
C         22.16448        51.67620         1.17828
C         23.50403        53.85160         1.29058
C         22.28399        54.53647         1.81970
C         23.66360        56.49481         2.49818
C         22.33927        55.87414         2.25206
C         23.70411        57.98547         2.60729
C         22.52953        58.65837         3.19112
C         23.97299        60.52490         3.86231
C         22.67742        59.90768         3.72050
C         24.60205         5.34867        -4.20311
C         25.82573         7.35334        -3.39842
C         24.61491         6.63227        -3.58908
C         25.82320         8.61577        -2.79812
C         24.58134         9.16540        -2.37427
C         25.85813        10.96015        -1.15854
C         24.57565        10.57960        -1.87328
C         25.83974        12.28536        -0.44284
C         24.56364        13.01025        -0.26350
C         25.68111        14.95304         0.71458
C         24.47042        14.25867         0.28338
C         25.61864        16.04336         1.54155
C         24.29775        16.70713         1.80848
C         25.54553        18.84840         2.35714
C         24.27487        18.18264         2.02089
C         25.53543        20.38853         2.46299
C         24.26233        21.09911         2.27347
C         25.51723        23.26088         2.17322
C         24.28272        22.54055         2.22942
C         25.51693        24.67556         2.30451
C         24.29188        25.27073         2.63953
C         25.55706        27.75630         1.70253
C         24.35272        27.38453         2.23672
C         25.60692        29.01242         0.95552
C         24.40569        29.62267         0.61107
C         25.64586        31.73581        -0.04915
C         24.39244        31.07055         0.36550
C         25.62591        33.06672        -0.49276
C         24.41064        33.81201        -0.65673
C         25.67874        35.83484        -1.17205
C         24.41748        35.14163        -1.10941
C         25.67633        37.28918        -1.44584
C         24.38803        37.99802        -1.69288
C         25.61287        40.20220        -1.75518
C         24.29643        39.49805        -1.41789
C         25.65187        41.52452        -2.13950
C         24.42416        42.24833        -2.40026
C         25.56003        44.43121        -2.42354
C         24.32663        43.68350        -2.41468
C         25.59534        45.82806        -2.22446
C         24.35361        46.48294        -1.93938
C         25.63762        48.71130        -1.77862
C         24.34888        47.94990        -1.70619
C         25.68911        50.07848        -1.15209
C         24.72747        50.42788        -0.10868
C         25.91016        52.52513         0.35456
C         24.71746        51.71412         0.45929
C         25.97385        53.83685         0.99357
C         24.83997        54.45303         1.48559
C         26.21268        56.51744         2.08659
C         24.92891        55.76479         2.16257
C         26.27805        57.83115         2.51833
C         25.06723        58.65052         2.70982
C         25.11622        59.92323         3.43826
C         27.06535         9.35789        -2.55746
C         28.41548        11.10019        -1.32448
C         27.11386        10.46463        -1.76648
C         28.29648        12.49392        -0.70952
C         27.07947        13.04965        -0.36169
C         28.15002        14.60736         1.16045
C         27.02242        14.47924         0.14886
C         28.13678        15.90908         1.90706
C         26.81573        16.56711         2.34810
C         28.08860        18.95727         2.29364
C         26.85718        18.10917         2.15015
C         28.05198        20.44726         2.12707
C         26.77602        21.16650         2.27386
C         28.02263        23.28249         1.89360
C         26.76163        22.53396         2.16502
C         27.99127        24.76718         1.77141
C         26.76620        25.49861         2.22710
C         28.08061        27.67638         1.61118
C         26.80428        27.02034         2.01670
C         28.07464        29.03952         1.19774
C         26.85622        29.70301         0.80868
C         28.10356        31.64646        -0.04937
C         26.87481        31.01774         0.19235
C         28.18383        32.92206        -0.77369
C         26.87589        33.70961        -0.95043
C         28.15191        35.94997        -1.03034
C         26.90586        35.18929        -1.04601
C         28.15155        37.33775        -1.01719
C         26.84477        38.10287        -0.93393
C         28.19990        40.13798        -1.81308
C         26.87729        39.42517        -1.69068
C         28.20705        41.58364        -2.16926
C         26.90821        42.20219        -2.52898
C         28.11349        44.48442        -2.76244
C         26.82333        43.71373        -2.74338
C         28.11450        45.91330        -2.40618
C         26.86801        46.58864        -2.22003
C         28.14391        48.70259        -1.86108
C         26.90418        47.98026        -1.97721
C         28.20865        50.07827        -1.46609
C         27.00248        50.83161        -1.10615
C         28.36085        52.64103        -0.08682
C         27.08002        51.99342        -0.21312
C         28.42601        53.88866         0.58508
C         27.27106        54.51074         1.09235
C         27.35643        55.80855         1.63765
C         29.50168        13.20225        -0.38575
C         30.67628        14.94434         0.88762
C         29.49483        14.27080         0.52067
C         30.65337        16.05069         1.78613
C         29.34258        16.31668         2.38144
C         30.58818        19.02562         2.59268
C         29.37504        18.44280         2.81212
C         30.59747        20.49924         2.57072
C         29.34550        21.19618         2.15830
C         30.61756        23.34486         2.09154
C         29.30322        22.67936         2.44980
C         30.61403        24.77538         1.72226
C         29.30066        25.51684         1.64992
C         30.56012        27.66710         1.67974
C         29.30609        26.99112         1.73211
C         30.53641        29.07354         1.44500
C         29.32646        29.71868         1.12204
C         30.55619        31.87009         0.53248
C         29.28487        31.12741         0.65966
C         30.72120        33.05607        -0.34950
C         29.47560        33.70711        -0.87819
C         30.68899        35.97093        -0.65145
C         29.45889        35.22547        -1.02841
C         30.61610        37.44596        -0.49790
C         29.37038        38.12898        -0.92983
C         30.61465        40.29992        -1.03764
C         29.38637        39.48282        -1.20022
C         30.60759        41.69588        -1.61218
C         29.37876        42.28459        -2.21472
C         30.63757        44.49715        -2.26047
C         29.43341        43.71636        -2.60237
C         30.61680        45.87410        -2.25720
C         29.35189        46.59745        -2.28227
C         30.62686        48.70955        -1.97068
C         29.36954        47.99867        -2.04631
C         30.64710        50.06587        -1.59997
C         29.45305        50.73488        -1.24894
C         29.49675        52.03183        -0.64804
C         31.77138        16.89364         1.95594
C         33.01127        19.00426         2.32025
C         31.83302        18.27664         2.40987
C         33.17631        20.46574         2.73734
C         31.86607        21.25900         2.67881
C         33.07064        23.36854         2.02131
C         31.82450        22.69383         2.26447
C         33.10647        24.78676         1.88383
C         31.85773        25.55398         1.89251
C         33.14880        27.65797         2.00779
C         31.81550        26.93657         1.82481
C         33.15028        29.09615         1.51174
C         31.83300        29.79389         1.29788
C         32.78383        32.11213         1.39230
C         31.77764        31.24740         1.06659
C         33.04802        33.36122         0.75715
C         31.96653        33.87557        -0.13914
C         33.07246        36.06722        -0.03355
C         31.87873        35.32586        -0.36749
C         33.15953        37.42637        -0.70068
C         31.91124        38.24018        -0.41832
C         33.14228        40.32177        -1.06011
C         31.92599        39.64229        -0.85287
C         33.17063        41.65726        -1.51009
C         31.92585        42.29942        -1.95548
C         33.14461        44.52297        -1.69732
C         31.92780        43.78405        -2.20615
C         33.11482        45.94923        -2.14231
C         31.88925        46.61056        -2.20960
C         31.84416        48.02371        -2.18069
C         34.27258        21.18966         1.99901
C         35.46161        23.26758         1.43824
C         34.27435        22.58432         1.83288
C         35.52094        24.67980         1.35332
C         34.32024        25.43554         1.60809
C         35.60979        27.58693         1.46443
C         34.27781        26.90023         1.23850
C         35.66565        29.05649         1.29372
C         34.49883        29.77682         1.58264
C         35.75568        31.92796         1.36759
C         34.67994        31.15661         1.81040
C         35.63307        33.44770         1.27904
C         34.25031        34.05238         0.94560
C         36.02518        36.41691         0.32962
C         34.09668        35.46551         0.67436
C         35.76204        37.41657        -0.76338
C         34.47331        38.18758        -0.51162
C         35.70536        40.29986        -1.28428
C         34.45343        39.65549        -0.78809
C         35.64933        41.62337        -1.69261
C         34.41551        42.37293        -1.71674
C         34.40632        43.74442        -1.93319
C         36.71690        25.34334         0.97241
C         38.04000        27.55090         0.75250
C         36.89573        26.77078         1.19528
C         38.06313        28.95687         0.75678
C         36.88488        29.74112         1.07064
C         38.13672        31.84040         0.65333
C         36.91981        31.17918         0.99698
C         38.21477        33.31046         0.68040
C         36.96596        34.16409         0.89385
C         38.17422        36.01712        -0.57509
C         37.03124        35.51231         0.21482
C         38.16747        37.38829        -1.03898
C         37.01760        38.19993        -1.01716
C         36.93183        39.56593        -1.32425
C         39.22136        29.65814         0.32927
C         40.41497        31.68627        -0.35541
C         39.26243        31.05758         0.26372
C         40.44566        33.01184        -0.61394
C         39.42305        33.92343        -0.07246
C         39.30803        35.24147        -0.69979
O         22.39799        41.88524        -3.59949
O         25.99235        51.08256        -2.15527
O         24.31365        26.49210         3.30827
O         29.65754        34.32341        -2.17105
O         36.37567        27.13771         2.56507
O         39.35185        33.87256         1.39798
O         25.26978        37.63731        -2.80716
O          9.72641        34.30969         1.58344
O         15.95050        35.25856        -2.21150
O         34.54777        39.10895         0.59142
O         25.88986        10.98124         0.28544
O         24.67528        48.72263        -2.90197
O         24.25964        58.67603         1.44880
O         12.67149        30.95634        -2.08944
O         32.07163        42.85335        -3.31178
O         27.47977        32.94927        -2.04883
O         18.52924        25.51663         2.97608
O         28.92218        44.11220        -3.91316
O         29.34975        17.21463         3.45457
O         23.06626        49.48760         1.37665
O         23.68464        31.72867         1.52360
O         30.44541        41.49817        -0.16644
O         19.43869        13.83061        -1.93147
O         14.15340        43.05098        -2.24265
O         18.99626        28.75049        -1.41506
O         12.61871        24.54037        -0.57858
O         32.61346        29.17213         0.15358
O         22.24356        13.62136         1.19177
O         31.16433        37.93481         0.78946
O         21.05323        39.68980        -3.57231
O         23.22129        53.45309        -0.10226
O         33.62787        31.79262         2.45442
O         35.03648        36.29584         1.29147
O         23.38384        11.00730         0.36562
O          9.90900        28.75261        -1.57576
O         17.19277        38.75221         0.47365
O         21.71405        47.88283        -2.25834
O         27.63593        18.40062         0.96863
O         23.40616        15.97432         2.71712
O         21.09781        22.92583         3.65121
O         19.94023        32.91162        -2.23668
O         14.83731        37.86244        -1.99681
O         29.99411        25.09092         0.42102
O         27.87528        23.90772         0.58751
O         24.39844        55.78401         3.55834
O         17.68921        26.32378        -0.73492
O         13.32402        33.58795        -2.24031
O         20.35403        51.81016         2.77029
O         20.20835        45.48389        -2.93065
O         14.85359        35.52903         1.28241
O         31.80457        32.97533        -1.30842
O         25.53739        19.51762         3.65809
O         36.45743        34.14626         2.25641
O         13.64788        27.37269         1.83653
O         27.62853        39.34283        -2.93059
O         26.76122        42.78649        -3.86183
O         14.02448        39.91338         1.02838
O         29.67471        32.15802         1.70302
O         28.79358        20.82322         0.88151
O         22.05347        27.95109         2.83436
O         31.06330        21.01955         3.90337
O         26.96849        26.40390         3.34528
O         22.24389        34.06392         0.48682
O         14.21792        21.75883         3.12920
O          9.69420        31.41301        -1.84180
O         27.89300        13.58603         2.17188
H         28.61253        13.62395         2.83637
O         21.90178        37.31954        -3.67128
H         21.39789        37.97019        -4.21753
O         19.85325        38.24667         0.28339
H         19.01131        38.47897         0.75278
O         20.67644        16.09782        -1.82260
H         20.12038        15.56880        -2.44193
O         20.57081        57.97019         4.44142
H         21.09459        57.36939         5.01036
O         34.02842        26.98395        -0.17978
H         33.08463        26.77504        -0.34802
O         17.75616        41.45787        -3.32667
H         17.62223        42.36651        -3.67151
O         26.54134        16.30553         3.72974
H         26.24189        15.37709         3.82148
O         29.31122        11.10027        -2.43547
H         30.17157        11.46848        -2.15127
O         32.93454        44.55365        -0.22522
H         33.71576        44.98878         0.17737
O         18.46039        33.38459         1.01778
H         17.65238        33.20526         1.54519
O         23.23863        27.91442        -0.54297
H         23.24504        28.45705        -1.36028
O         33.01911        37.18973        -2.13095
H         33.81491        36.69890        -2.44653
O         26.57140        38.39360         0.47245
H         27.41195        38.64440         0.91279
O         33.47264        27.69081         3.40632
H         33.59119        26.77209         3.72673
O         22.02281        34.60179        -3.13591
H         22.02669        35.42074        -3.69066
O         27.32415        15.36881        -0.95386
H         26.60176        15.30610        -1.61245
O         29.12657        22.85612         3.88495
H         29.84917        22.34436         4.32963
O         14.16420        33.17022         1.21082
H         14.29033        33.99617         1.77693
O         35.55344        36.60639        -1.97533
H         36.43631        36.36031        -2.32803
O         24.51640        11.44178        -3.05861
H         25.17200        11.10929        -3.70833
O         33.60290        20.43151         4.13570
H         32.77851        20.40139         4.67490
O         24.02364        39.66991         0.00014
H         24.78072        39.27323         0.49516
O         22.77446        14.75023        -1.93297
H         22.23596        15.43916        -2.39976
O         16.27560        52.79307         0.38375
H         16.69388        52.76422        -0.50095
H          4.82883        31.10507         0.81201
H          4.88696        33.57185         0.96481
H          7.23805        26.84686         0.70061
H          6.02341        28.96433         0.62803
H          6.09227        35.68047         0.72896
H          7.29024        37.84080         0.25725
H          9.69689        22.55919         1.23622
H          8.43067        24.72908         0.95071
H          8.51275        39.97533        -0.03310
H          9.74789        42.13313        -0.19302
H         12.27038        18.34067         0.99098
H         10.95727        20.43969         1.31085
H         10.99480        44.29625        -0.24662
H         12.34287        46.40326         0.11255
H         14.88286        14.29186         0.07136
H         13.57404        16.32081         0.58817
H         13.65372        48.42967         0.41381
H         14.94060        50.45487         0.84571
H         17.44345        10.20997        -1.01963
H         16.13911        12.29325        -0.46096
H         16.51929        52.02754         2.26994
H         17.64243        54.56761         1.82991
H         19.97539         6.52631        -3.12355
H         18.70489         8.39525        -2.08173
H         18.99465        56.51473         2.60293
H         20.49931        58.62899         2.49914
H         23.41377         3.67594        -4.86480
H         21.24942         4.67091        -4.14726
H         24.02893        61.48684         4.39153
H         21.80120        60.42962         4.13087
H         25.55087         4.89996        -4.53039
H         26.77468         6.90561        -3.72898
H         27.25798        58.32880         2.58631
H         26.09882        60.36106         3.66773
H         27.99609         8.95123        -2.98007
H         28.84628        10.43233        -0.51238
H         29.39395        54.40487         0.66732
H         28.33161        56.31852         1.64117
H         30.46732        12.84075        -0.77459
H         31.61703        14.68276         0.37788
H         31.61193        50.58238        -1.49134
H         30.47366        52.52677        -0.54607
H         32.71186        16.51857         1.51612
H         33.93819        18.47118         2.05484
H         34.04753        46.53385        -2.16546
H         32.78719        48.58969        -2.14939
H         35.20567        20.63791         1.80684
H         36.37677        22.68272         1.26274
H         36.57197        42.13008        -2.01318
H         35.35662        44.28076        -2.07501
H         37.55195        24.75769         0.56071
H         38.88899        27.01374         0.30341
H         39.12959        37.81942        -1.35295
H         37.84290        40.10416        -1.62759
H         40.10981        29.08476         0.02576
H         41.21614        31.03000        -0.72576
H         41.25826        33.44761        -1.21406
H         40.15463        35.60010        -1.30410
