         640
 CSIRO Nanostructure Databank - Neutral Graphene Oxide Data Set
C         23.00928        27.33157         0.11354
C         22.98226        28.71370         0.11258
C         22.95636        31.65945         0.02233
C         22.95331        33.03729        -0.06760
C         22.94728        35.96173        -0.27059
C         22.94166        37.33245        -0.39829
C         22.96471        40.24547        -0.67472
C         22.96996        41.62606        -0.82541
C         22.96687        44.54998        -1.09228
C         22.97145        45.92397        -1.23296
C         25.47324        24.52605         0.09211
C         24.27807        25.19969         0.10256
C         25.45863        27.35720         0.18152
C         24.23848        26.62784         0.13485
C         25.42588        28.78369         0.17223
C         24.17927        29.47521         0.12716
C         25.39317        31.64430         0.05780
C         24.16689        30.92229         0.07790
C         25.39108        33.06932        -0.05506
C         24.16005        33.78179        -0.12156
C         25.39002        35.93518        -0.36167
C         24.16075        35.22245        -0.25289
C         25.38694        37.35382        -0.53438
C         24.15004        38.06881        -0.55442
C         25.40864        40.18914        -1.17818
C         24.14630        39.48956        -0.73016
C         25.41644        41.67122        -0.91201
C         24.18688        42.36545        -0.90827
C         25.40914        44.51235        -0.94353
C         24.17331        43.81132        -0.95864
C         25.39608        45.92322        -1.12082
C         24.19536        46.63764        -1.26530
C         25.36803        48.80592        -1.35439
C         24.21963        48.08567        -1.36332
C         28.02159        23.08999        -0.12416
C         27.96248        24.51695         0.14978
C         26.72518        25.21736         0.14553
C         27.92083        27.38239         0.28981
C         26.71068        26.65547         0.21653
C         27.89639        28.81377         0.29111
C         26.65656        29.51463         0.19453
C         27.86920        31.65034         0.06286
C         26.64184        30.93761         0.12887
C         27.87137        33.08839        -0.02966
C         26.63226        33.78961        -0.09686
C         27.86585        35.89942        -0.30023
C         26.63175        35.20649        -0.25133
C         27.87842        37.31710        -0.67285
C         26.62809        38.08760        -0.65299
C         27.91700        40.21306        -0.68712
C         26.67567        39.47240        -0.78723
C         27.90139        41.65054        -0.67062
C         26.65389        42.36472        -0.80754
C         27.87999        44.48681        -0.61316
C         26.65373        43.78815        -0.79565
C         27.84875        45.96350        -0.59396
C         26.67643        46.64197        -1.22016
C         27.93262        48.88497        -1.00352
C         26.68893        48.14930        -1.34970
C         27.96086        50.24829        -0.80901
C         30.38600        23.00941         0.62108
C         29.16434        22.38193        -0.00025
C         30.41683        24.50528         0.38428
C         29.19442        25.21796         0.31739
C         30.37133        27.37194         0.51472
C         29.18968        26.67763         0.35510
C         30.41310        28.86880         0.65456
C         29.11393        29.55638         0.31652
C         30.34985        31.67693        -0.31479
C         29.09852        30.93761         0.11897
C         30.35242        33.12185         0.09209
C         29.09522        33.81231         0.03424
C         30.31325        35.97875         0.12160
C         29.08727        35.23660        -0.05674
C         30.36820        37.34698        -0.07006
C         29.19901        38.07382        -0.59953
C         30.36760        40.24316        -0.29021
C         29.14696        39.54119        -0.49454
C         30.35907        41.66796        -0.30050
C         29.11911        42.36819        -0.47323
C         30.33907        44.55394        -0.27079
C         29.09955        43.80689        -0.44245
C         30.35984        45.94581        -0.31629
C         29.12338        46.72794        -0.45290
C         30.44082        48.88101        -0.56241
C         29.23719        48.11785        -1.07549
C         30.41685        50.30916        -0.56041
C         29.17189        50.96294        -0.64922
C         32.99038        20.23399         0.16711
C         31.76483        20.93462         0.38541
C         32.87509        23.07427        -0.19609
C         31.67599        22.29455         0.28273
C         32.87620        24.51442         0.25941
C         31.65595        25.18481         0.43002
C         32.89640        27.38311         0.33825
C         31.66042        26.64798         0.80293
C         32.88757        28.77351         0.14840
C         31.58607        29.46068        -0.17157
C         32.80168        31.65271         0.20399
C         31.62751        30.95404        -0.01004
C         32.79151        33.09706         0.35868
C         31.54030        33.79366         0.33830
C         32.79263        35.97630         0.60210
C         31.48070        35.25133         0.74431
C         32.80471        37.39738         0.47451
C         31.57969        38.10728         0.14602
C         32.88011        40.19113        -0.07222
C         31.58481        39.48762        -0.06515
C         32.88866        41.70675        -0.12154
C         31.58272        42.42585        -0.15564
C         32.90066        44.53233        -0.20932
C         31.57310        43.80874        -0.13702
C         32.85614        45.99278         0.18179
C         31.57511        46.72842        -0.01470
C         32.86387        48.87858        -0.14740
C         31.61601        48.19079        -0.24994
C         32.88941        50.30132        -0.29804
C         31.66683        51.02546        -0.43640
C         32.92955        53.10779        -0.57648
C         31.72426        52.43888        -0.53478
C         35.56789        18.82236        -0.24974
C         35.48085        20.21096        -0.07827
C         34.20046        20.91271         0.02465
C         35.37615        23.07483         0.12710
C         34.18527        22.35073         0.03655
C         35.35463        24.51983         0.22270
C         34.11275        25.22095         0.30485
C         35.34456        27.37697         0.28898
C         34.11667        26.66022         0.34779
C         35.34252        28.80771         0.24946
C         34.09552        29.51595         0.15712
C         35.26287        31.68724         0.35142
C         34.07473        30.95342         0.22286
C         35.24905        33.09410         0.55337
C         34.00633        33.80125         0.55279
C         35.23868        35.93672         0.85779
C         34.00450        35.24640         0.69139
C         35.18690        37.38859         1.25902
C         34.00811        38.11402         0.66396
C         35.24341        40.25009         0.76500
C         34.07119        39.51331         0.46952
C         35.23486        41.68563         0.76719
C         34.08147        42.37620         0.43009
C         35.28189        44.62200         0.75914
C         34.00222        43.83703         0.57132
C         35.33234        46.02229         0.28615
C         34.13189        46.73059         0.07952
C         35.33831        48.85036        -0.11864
C         34.11122        48.15739        -0.05744
C         35.37302        50.27185        -0.19590
C         34.13805        51.00105        -0.31401
C         35.42806        53.09315        -0.64451
C         34.16587        52.40994        -0.50291
C         35.50177        54.46294        -0.99846
C         37.99717        18.90161        -0.45782
C         36.80189        18.18445        -0.45703
C         37.96071        20.30674        -0.18092
C         36.69414        20.96684        -0.02968
C         37.84820        23.11976         0.25009
C         36.64351        22.38260         0.12793
C         37.82502        24.54265         0.33028
C         36.57522        25.23809         0.29319
C         37.80210        27.38757         0.38710
C         36.57610        26.66890         0.32312
C         37.78720        28.81721         0.40363
C         36.56345        29.51017         0.29697
C         37.70098        31.63525         0.95108
C         36.59176        31.00837         0.11283
C         37.72150        33.13630         0.78978
C         36.49084        33.81877         0.71393
C         37.70879        35.96689         0.98288
C         36.46573        35.25036         0.84406
C         37.71299        37.39194         1.11448
C         36.48518        38.13403         1.10442
C         37.68669        40.28363         1.26769
C         36.47289        39.53810         1.07775
C         37.72520        41.68265         1.26485
C         36.42100        42.44006         1.37676
C         37.74750        44.53545         0.78517
C         36.53611        43.87592         0.90402
C         37.80110        45.95320         0.42051
C         36.58679        46.64495         0.14468
C         37.85431        48.77204         0.06080
C         36.59860        48.05925        -0.38786
C         37.85871        50.26883         0.11091
C         36.60519        50.98246        -0.18619
C         37.91426        53.05766        -0.51325
C         36.64982        52.37429        -0.44430
C         37.94806        54.41557        -0.95048
C         36.71697        55.08800        -1.18708
C         40.68017        16.36189        -1.49906
C         39.49007        16.85192        -1.10992
C         40.55144        19.12392        -0.77037
C         39.28187        18.31043        -0.92913
C         40.46419        20.41706        -0.07560
C         39.16185        21.05225        -0.00374
C         40.30568        23.15489         0.53598
C         39.10465        22.43544         0.29579
C         40.29176        24.55555         0.50625
C         39.04657        25.26038         0.40583
C         40.27000        27.40627         0.50912
C         39.04034        26.68517         0.42712
C         40.24039        28.81938         0.59386
C         39.03204        29.53000         0.53224
C         40.19321        31.70089         0.61386
C         39.02429        30.97047         0.66189
C         40.19806        33.13307         0.75716
C         38.95042        33.83615         0.84648
C         40.18258        35.97774         0.97505
C         38.94396        35.26861         0.93546
C         40.18281        37.39521         1.13853
C         38.94587        38.07604         1.23041
C         40.23242        40.26501         1.57753
C         38.91309        39.51431         1.52731
C         40.21150        41.71805         1.34828
C         38.96512        42.40530         1.25175
C         40.21802        44.52153         0.97287
C         38.99211        43.82259         1.01007
C         40.25520        45.93863         0.71386
C         39.05548        46.61271         0.37231
C         40.35267        48.79385         0.31183
C         39.15116        48.02338        -0.17932
C         40.36541        50.23114         0.22145
C         39.14839        50.98429         0.03470
C         40.39056        53.13958        -0.06285
C         39.13743        52.36183        -0.20147
C         40.44770        54.60532        -0.49757
C         39.20038        55.07157        -1.21254
C         40.51020        56.83852        -2.26734
C         39.28272        56.23726        -1.97887
C         43.16801        16.53059        -1.85910
C         41.86235        17.26448        -1.82983
C         42.97357        18.90587        -0.19611
C         41.86883        18.45463        -0.87525
C         42.84953        20.18326         0.69014
C         41.60265        21.00200         0.40114
C         42.80249        23.19526         0.47377
C         41.56951        22.42183         0.91316
C         42.77095        24.56343         0.33927
C         41.52902        25.29531         0.47172
C         42.77447        27.43359         0.42831
C         41.51671        26.69328         0.46869
C         42.76890        28.84154         0.60835
C         41.49503        29.58566         0.93242
C         42.70458        31.75025         0.64785
C         41.47277        30.96842         0.27506
C         42.69195        33.14505         0.68641
C         41.42361        33.85374         0.74066
C         42.64885        36.00122         0.77566
C         41.41847        35.27049         0.84722
C         42.65906        37.42011         0.88532
C         41.43180        38.12069         1.13095
C         42.68112        40.24009         1.18265
C         41.46058        39.51979         1.26789
C         42.68434        41.66078         1.32202
C         41.43940        42.39499         1.30340
C         42.67315        44.52611         1.26287
C         41.45920        43.82873         1.18705
C         42.71955        45.94157         1.07559
C         41.49535        46.65125         0.79478
C         42.74653        48.83394         0.89867
C         41.50083        48.08128         0.65730
C         42.83090        50.20655         0.37853
C         41.61353        50.90048         0.18307
C         42.95353        52.94810        -0.41272
C         41.68134        52.36617         0.06783
C         42.93569        54.26481        -1.03979
C         41.73648        54.97683        -1.21272
C         42.97023        56.76178        -2.37707
C         41.73688        56.21084        -1.93273
C         44.27522        17.03967        -1.29128
C         45.41426        18.45897         0.31301
C         44.24528        18.17475        -0.37801
C         45.32238        20.53787         1.05242
C         44.08074        21.09189         0.68751
C         45.30035        23.21249         0.42907
C         44.05852        22.47735         0.46654
C         45.29197        24.61390         0.23327
C         44.00017        25.30481        -0.13050
C         45.22011        27.47773         0.25155
C         43.99222        26.76488         0.23792
C         45.20833        28.89444         0.38967
C         43.96575        29.55646         0.58412
C         45.27105        31.81182         0.64099
C         43.93048        31.01153         0.84095
C         45.14852        33.22556         0.31917
C         43.91760        33.88511         0.54613
C         45.05298        36.05329         0.26687
C         43.87248        35.32161         0.52579
C         45.09767        37.45459         0.43546
C         43.88753        38.13116         0.78546
C         45.14728        40.23309         1.09615
C         43.90999        39.54317         0.99444
C         45.12679        41.60612         1.43581
C         43.91774        42.33214         1.45568
C         45.18976        44.50512         1.43539
C         43.89570        43.80827         1.78262
C         45.20463        45.86630         1.23683
C         43.97918        46.59927         1.11025
C         45.29827        48.73774         0.65499
C         44.05744        48.06780         1.07349
C         45.30951        50.07084         0.27893
C         44.07680        50.82713         0.15207
C         45.34543        52.62162        -1.09315
C         44.09518        52.16575        -0.38619
C         45.39935        54.11246        -1.31995
C         44.17150        54.82900        -1.50648
C         44.15491        56.10380        -2.13660
C         47.81083        19.11740         0.16617
C         46.78260        18.28207        -0.14089
C         47.81296        20.33402         1.10601
C         46.55335        21.15892         0.91896
C         47.78120        23.26707         0.52268
C         46.55519        22.54430         0.60368
C         47.75753        24.66786         0.34755
C         46.49772        25.34230         0.23162
C         47.68532        27.50881         0.15788
C         46.47398        26.78242         0.17112
C         47.64761        28.93162         0.15139
C         46.44290        29.62176         0.27697
C         47.52527        31.77183        -0.33237
C         46.44803        31.07426         0.20167
C         47.45674        33.18669        -0.53277
C         46.28077        33.89582        -0.23150
C         47.46725        36.16364        -0.58714
C         46.19665        35.36450        -0.35216
C         47.55184        37.51633         0.00098
C         46.34916        38.17148         0.36634
C         47.63209        40.17045         0.99223
C         46.39956        39.53646         0.82927
C         47.68931        41.45543         1.79726
C         46.40443        42.27816         1.77416
C         47.73345        44.44780         1.45350
C         46.44481        43.77313         1.70172
C         47.75136        45.82081         1.26812
C         46.48972        46.65415         1.40655
C         47.81602        48.66902         0.71791
C         46.53802        47.88464         0.49407
C         47.82324        50.06455         0.36624
C         46.58825        50.73217         0.00167
C         47.85448        52.71014        -0.74197
C         46.61545        52.02087        -0.52799
C         47.84024        54.01918        -1.25093
C         46.64431        54.71100        -1.49535
C         50.30720        20.52188         1.01402
C         49.06773        21.16674         0.89745
C         50.25983        23.28982         0.50889
C         49.03901        22.55947         0.64627
C         50.24691        24.72226         0.33178
C         48.98671        25.41598         0.28014
C         50.17730        27.56655         0.00742
C         48.95324        26.81908         0.15502
C         50.15326        28.96548        -0.16318
C         48.91021        29.75383         0.15260
C         50.02899        31.80859        -0.75529
C         48.75679        30.98516        -0.74421
C         49.97278        33.16269        -0.95158
C         48.67825        33.89031        -0.99045
C         50.01899        36.07687        -0.65004
C         48.72160        35.40716        -0.90854
C         50.03273        37.41676        -0.13720
C         48.81907        38.12808         0.17587
C         50.10417        40.11567         0.90988
C         48.87488        39.48909         0.69870
C         50.20789        41.46550         1.60075
C         48.93387        42.26731         1.51588
C         50.20284        44.38207         1.36151
C         48.94851        43.65829         1.42282
C         50.20193        45.79161         1.32940
C         48.99627        46.52454         1.18149
C         50.24922        48.70120         1.17974
C         48.98288        47.96811         1.02960
C         50.28816        50.17238         0.73941
C         49.03915        50.76916         0.24533
C         50.34840        52.63347        -0.64030
C         49.09695        52.05798        -0.37164
C         51.49864        21.21272         0.82390
C         52.73629        23.32749         0.33204
C         51.50138        22.59694         0.55374
C         52.71969        24.74498         0.21685
C         51.45535        25.44683         0.22609
C         52.63372        27.61301        -0.11624
C         51.43516        26.87495         0.02826
C         52.59777        28.99845        -0.40223
C         51.33789        29.68921        -0.44612
C         52.50261        31.81646        -0.92774
C         51.29374        31.09762        -0.71288
C         52.48224        33.21951        -1.14872
C         51.18788        33.94843        -1.39224
C         52.45766        36.05890        -0.80702
C         51.20550        35.37694        -0.87815
C         52.47334        37.41262        -0.35631
C         51.29960        38.04748         0.04787
C         52.63383        40.12835         0.64762
C         51.37869        39.30887         0.87679
C         52.64984        41.51323         0.94548
C         51.44315        42.24093         1.21755
C         52.69582        44.35812         1.18182
C         51.44245        43.63624         1.28534
C         52.72443        45.75282         1.26818
C         51.48633        46.51690         1.65824
C         52.71892        48.58821         1.00602
C         51.52646        47.95134         1.18547
C         52.85582        49.97683         0.42161
C         51.56613        50.74862         0.30465
C         51.55431        51.94651        -0.37306
C         55.14139        23.34804        -0.02068
C         53.97405        22.65450         0.22551
C         55.15293        24.76404        -0.10225
C         53.93871        25.45700         0.05687
C         55.15388        27.65380        -0.36402
C         53.95040        26.95524         0.22980
C         55.07705        29.01966        -0.61252
C         53.81405        29.73315        -0.62979
C         54.95437        31.85018        -1.27722
C         53.76326        31.12057        -0.89750
C         54.92290        33.26860        -1.47240
C         53.68127        33.95655        -1.28846
C         54.93862        36.07590        -1.10103
C         53.66927        35.38420        -1.15746
C         54.99266        37.36480        -0.58021
C         53.74640        38.20233        -0.53135
C         55.07815        40.11461         0.40831
C         53.82922        39.47188         0.27940
C         55.11733        41.50540         0.74503
C         53.89755        42.22050         0.88819
C         55.16862        44.32159         1.05730
C         53.92427        43.63392         1.03762
C         55.18946        45.74025         1.16632
C         53.96135        46.45104         1.21362
C         55.18500        48.58936         1.31027
C         53.97988        47.87900         1.18747
C         55.10621        50.04410         1.43907
C         53.98542        50.71729         1.10526
C         57.56643        24.76601        -0.72925
C         56.38252        25.48232        -0.43151
C         57.55348        27.54713        -1.04051
C         56.37754        26.90425        -0.56920
C         57.63615        29.00568        -1.11565
C         56.29655        29.79953        -0.87924
C         57.26949        31.78204        -2.11313
C         56.16940        31.15452        -1.38346
C         57.25201        33.24147        -2.30667
C         56.11134        34.01557        -1.81901
C         57.31662        36.26708        -1.77294
C         56.13783        35.40822        -1.59033
C         57.44457        37.46802        -1.02822
C         56.31392        37.92668        -0.13191
C         57.52516        40.08709         0.16768
C         56.31490        39.42652         0.08776
C         57.62353        41.39236         0.93357
C         56.36050        42.19885         0.85387
C         57.66005        44.30675         1.06522
C         56.39701        43.58746         0.99113
C         57.65750        45.72459         1.21167
C         56.42575        46.45547         1.24535
C         57.68755        48.54790         1.47866
C         56.42909        47.87333         1.36703
C         58.68975        25.39129        -1.23462
C         59.82501        27.44805        -2.00530
C         58.69692        26.79552        -1.43464
C         59.79613        28.81412        -2.28360
C         58.72308        29.61458        -1.88297
C         59.74172        31.80568        -2.75335
C         58.57986        31.00033        -2.37825
C         59.55181        33.07425        -3.21865
C         58.29184        33.74331        -3.07107
C         59.50889        36.76676        -2.80026
C         58.34332        36.00014        -2.71025
C         59.66887        37.86300        -1.96377
C         58.63072        38.23496        -1.08586
C         59.94700        40.14088        -0.16728
C         58.74300        39.47339        -0.31087
C         60.00777        41.49371         0.28635
C         58.88330        42.18003         0.67714
C         60.10251        44.34250         1.03487
C         58.88953        43.61424         0.94469
C         60.10704        45.71286         1.22735
C         58.89113        46.43308         1.30015
C         58.87117        47.85485         1.44950
O         57.33469        29.68260         0.15580
O         58.18345        35.00408        -3.68105
O         28.69268        37.56738        -1.87978
O         28.21429        46.59347         0.69423
O         44.75868        31.44108         1.95493
O         46.48745        35.99241        -1.65398
O         41.03479        52.99901         1.25294
O         57.50349        31.05909        -3.39008
O         39.79776        19.13405        -2.04445
O         26.91088        47.25130        -2.53678
O         37.75149        49.40699         1.34428
O         48.58681        34.72865        -2.20705
O         50.23162        49.78090         2.16565
O         34.31249        44.39017         1.88106
O         32.06714        46.33779         1.34957
O         33.14358        40.92135        -1.33795
O         39.55943        39.84608         2.81153
O         43.36018        48.68723         2.21540
O         45.29707        19.20263         1.51095
O         46.34957        43.06802         3.03354
O         56.54829        37.34574         1.20469
H         57.27143        37.85767         1.62556
O         36.94035        31.25929        -1.28305
H         36.25058        30.84987        -1.84576
O         40.46380        55.41329         0.72459
H         40.88487        54.84881         1.41786
O         25.37980        40.08819        -2.66666
H         25.49623        39.13995        -2.89283
O         46.55147        47.38720        -0.87699
H         46.57508        48.16051        -1.47926
O         47.79917        40.96940         3.19173
H         47.45039        41.70249         3.75439
O         53.29530        49.77628        -0.96815
H         54.14644        49.28853        -0.93403
O         33.31354        44.51690        -1.61000
H         33.23212        43.59713        -1.94428
O         30.73366        29.19904         2.04791
H         29.92959        29.03571         2.58537
O         41.68690        17.74308        -3.19308
H         40.88009        18.31757        -3.18784
O         46.46887        47.17113         2.75973
H         46.34993        46.42142         3.37939
O         29.53123        47.88986        -2.49380
H         28.67811        47.61708        -2.91816
O         41.47657        29.81753         2.37000
H         41.53255        28.94913         2.82039
O         41.50025        30.75120        -1.16427
H         41.32316        31.60761        -1.60628
O         43.94202        25.28108        -1.60638
H         43.95093        24.34045        -1.88414
O         34.93862        37.35995         2.72661
H         35.03997        38.27902         3.05655
O         48.55948        30.50721        -2.09843
H         48.53778        31.28250        -2.69777
O         45.23107        52.03974        -2.45454
H         45.98535        52.38789        -2.97681
O         57.72700        40.96237         2.35201
H         58.62391        40.58289         2.47106
O         39.35690        47.90331        -1.62158
H         38.48137        47.69263        -2.02998
O         50.43006        41.14121         3.03665
H         49.52896        40.90883         3.39470
O         31.79149        26.66063         2.27595
H         31.72093        27.60953         2.54506
O         30.24037        31.69072        -1.78986
H         30.32433        30.74679        -2.07275
O         53.63822        38.72407        -1.92724
H         53.51284        37.94998        -2.51849
O         51.53074        38.80436         2.25683
H         51.32565        39.57492         2.85135
O         36.13108        42.51684         2.81209
H         35.39361        43.16843         2.91245
O         37.37678        31.36131         2.34480
H         38.10623        31.70883         2.89960
O         30.22917        22.84903         2.07633
H         29.44580        23.37384         2.34590
O         31.20084        35.25148         2.19756
H         32.01390        34.94203         2.65171
O         41.60626        22.35984         2.38047
H         42.00103        21.48849         2.62489
O         42.67531        19.72205         2.07035
H         43.51773        19.27155         2.31874
O         47.85681        19.82824         2.46442
H         47.02321        19.32452         2.60353
O         51.08826        34.04449        -2.86004
H         50.18954        34.41951        -3.04558
O         51.49851        46.57438         3.12933
H         52.28654        47.09244         3.39857
O         31.25947        29.14540        -1.56740
H         32.07098        29.27742        -2.10191
O         32.73325        23.14599        -1.67321
H         32.79752        22.22695        -2.01129
O         36.67626        47.95079        -1.86179
H         35.88962        47.44532        -2.16087
O         43.78277        43.90346         3.24839
H         44.62110        43.52337         3.61040
O         54.09739        27.14758         1.69219
H         54.24099        28.10585         1.84736
O         49.09257        30.27371         1.50490
H         49.15129        29.51212         2.11887
H         22.06799        26.76372         0.08848
H         22.00824        29.22017         0.08869
H         21.99137        31.13603         0.04444
H         21.98465        33.55193        -0.11310
H         21.98463        35.44329        -0.17334
H         21.97592        37.85411        -0.40547
H         22.00115        39.75222        -0.48653
H         22.00930        42.15514        -0.78729
H         22.00180        44.02676        -1.10313
H         22.02390        46.47141        -1.33807
H         25.46124        23.42817         0.06658
H         23.33007        24.64303         0.07594
H         25.31944        49.90414        -1.34686
H         23.25183        48.60858        -1.39033
H         27.12134        22.58829        -0.50673
H         27.02372        50.82398        -0.81224
H         29.17893        21.31086        -0.25046
H         29.11368        52.05638        -0.57207
H         32.97188        19.13691         0.21725
H         30.88314        20.34711         0.68121
H         32.92041        54.20105        -0.67693
H         30.79661        53.02137        -0.61350
H         34.65578        18.21098        -0.28533
H         34.58292        55.04119        -1.16151
H         36.80864        17.10422        -0.66082
H         36.72616        56.14489        -1.48385
H         40.80224        15.27624        -1.63683
H         38.65361        16.16927        -0.89611
H         40.53385        57.76881        -2.85299
H         38.37295        56.68064        -2.40767
H         43.22678        15.62086        -2.47429
H         42.96549        57.71920        -2.91741
H         45.23079        16.50400        -1.39489
H         45.09300        56.54890        -2.49413
H         48.77676        18.89403        -0.31674
H         46.97401        17.49430        -0.88745
H         48.78275        54.56418        -1.39047
H         46.71510        55.77296        -1.76812
H         50.33667        19.45101         1.25917
H         50.41332        53.60929        -1.13871
H         52.44403        20.66147         0.91047
H         52.50247        52.38162        -0.71921
H         56.07056        22.77450        -0.12616
H         54.01998        21.56067         0.30557
H         55.96695        50.58803         1.85432
H         53.92751        51.80976         1.21787
H         57.59939        23.67714        -0.59843
H         57.70852        49.64167         1.57889
H         59.58062        24.80382        -1.49764
H         60.69476        26.84602        -2.30225
H         60.63253        29.26574        -2.83592
H         60.75041        31.37385        -2.69494
H         60.39451        33.65496        -3.61902
H         60.26899        36.51081        -3.54928
H         60.57786        38.47287        -2.04292
H         60.88108        39.68066        -0.51637
H         60.97616        42.00722         0.20319
H         61.06305        43.81338         0.96953
H         61.06017        46.25502         1.30810
H         59.82748        48.39218         1.52795
