         318
 CSIRO Nanostructure Databank - Neutral Graphene Oxide Data Set
C         30.92566        31.59387        -2.04215
C         30.76215        32.78694        -1.72067
C         30.75644        36.02113        -1.56878
C         30.51059        37.26609        -1.60439
C         30.29617        40.35927        -0.74403
C         30.23895        41.59291        -0.61730
C         33.56382        28.88248        -2.10563
C         32.46239        29.43973        -2.23220
C         33.15399        31.42414        -0.90799
C         32.10805        30.84559        -2.43627
C         33.00768        32.93422        -0.68181
C         31.68464        33.66886        -0.99786
C         32.86920        35.93791        -0.62428
C         31.75182        35.11691        -1.23282
C         32.90480        37.42507        -0.99784
C         31.50866        38.11566        -0.75027
C         32.71681        40.40611        -0.84156
C         31.47901        39.56812        -1.23940
C         32.64112        41.78612        -0.74561
C         31.35358        42.43261        -0.07685
C         32.52425        44.54610        -0.34540
C         31.47147        43.90261        -0.32558
C         36.26942        27.51872        -1.18747
C         36.00779        28.83490        -1.25570
C         34.88564        29.61020        -1.93869
C         35.55080        31.83563        -1.02623
C         34.54326        30.96607        -1.25088
C         35.44025        33.02730        -0.09339
C         34.27187        33.82614        -0.71628
C         35.34744        35.99787         0.33089
C         34.09290        35.22447        -0.14079
C         35.48824        37.38082        -0.42384
C         34.06457        38.22154        -0.32425
C         35.11445        40.46343        -1.01592
C         33.99920        39.69093        -0.86754
C         35.17775        41.93435        -0.96599
C         33.84425        42.63430        -0.98934
C         35.17054        44.90394        -0.59616
C         33.87643        44.16574        -0.75758
C         35.34157        46.19562         0.08554
C         38.16711        27.22375         0.19963
C         37.08193        26.75890        -0.47706
C         38.39455        28.73420        -0.12126
C         37.05346        29.48842        -0.26055
C         38.12149        31.62110         0.38439
C         37.42612        30.91106        -0.52287
C         38.05214        33.11391         0.27915
C         36.72553        33.83653         0.10559
C         37.91524        36.00228         0.48936
C         36.64621        35.18199         0.29862
C         37.71806        37.42895         1.05428
C         36.67836        38.14172         0.19190
C         37.64902        40.43899         0.50413
C         36.93602        39.42351        -0.21078
C         37.93710        41.75120         0.12323
C         36.17633        42.72448        -0.02877
C         37.79120        44.73850         0.13034
C         36.59173        44.09947        -0.61203
C         37.76636        46.04595         0.54221
C         36.45163        46.61775         0.42556
C         40.37446        24.54509         1.51123
C         39.36847        25.08279         1.02378
C         40.50808        27.22307         1.14037
C         39.06294        26.56250         1.21524
C         40.37141        28.69474         1.49318
C         39.28412        29.44758         0.86594
C         40.24839        31.64400         1.77324
C         38.96510        30.84430         1.39441
C         40.28625        33.13011         1.60021
C         39.19197        33.85689         0.87112
C         40.38224        36.00464         1.06220
C         39.03976        35.30013         1.29463
C         40.38459        37.47614         0.65578
C         39.08622        38.15363         1.04964
C         40.33996        40.34371         1.63651
C         39.15420        39.43668         1.46590
C         40.38051        41.68681         0.75001
C         39.04600        42.46852         0.45498
C         40.20539        44.57121         1.06631
C         39.13216        43.98557         0.08556
C         40.25166        46.09143         1.26174
C         38.87764        46.85885         1.13540
C         40.31197        48.75059         0.64221
C         39.26669        48.11090         0.33630
C         42.93782        24.53404         2.09356
C         41.63129        25.11264         1.93538
C         42.93119        27.22876         2.29908
C         41.62797        26.50538         1.90493
C         42.93658        28.75838         2.07902
C         41.59327        29.44447         1.97016
C         42.83834        31.66121         1.42773
C         41.59546        30.94825         1.88085
C         42.72566        33.09234         0.89890
C         41.62477        33.87710         1.68816
C         42.85563        35.99981         1.17845
C         41.53497        35.31311         1.20856
C         42.86979        37.48979         1.11242
C         41.59621        38.24817         1.13996
C         42.97255        40.29318         1.48352
C         41.62664        39.57776         1.37590
C         42.88354        41.74993         1.07608
C         41.60391        42.51606         1.31849
C         42.91591        44.66216         1.10907
C         41.63121        43.92217         0.71300
C         42.94172        46.13736         1.45971
C         41.56137        46.83211         1.36810
C         42.86736        48.83980         1.19509
C         41.58055        48.33838         1.07985
C         44.04770        25.09634         2.02835
C         45.46958        27.23142         1.52984
C         44.15474        26.50558         1.46516
C         45.47721        28.74479         1.46084
C         44.18281        29.50854         1.65958
C         45.26886        31.65101         0.59958
C         43.99766        30.82875         0.86908
C         45.24063        32.99556         0.37937
C         44.10276        33.79462         1.00218
C         45.12084        35.94997         0.19421
C         44.02763        35.26803         0.65373
C         45.18409        37.41591         0.27999
C         44.08445        38.15160         0.63090
C         45.38077        40.31183         0.51163
C         44.01480        39.64928         0.50300
C         45.43059        41.77431         0.76255
C         44.12320        42.50450         1.04637
C         45.36921        44.68967         0.51825
C         44.09562        43.98764         0.97481
C         45.43961        46.16805         1.02564
C         44.11265        46.88444         0.73729
C         44.02273        48.32016         1.35868
C         47.69752        27.27736         0.44488
C         46.66942        26.72663         0.84220
C         47.96451        28.76327         0.67550
C         46.50501        29.37618         0.50270
C         47.44039        31.41224        -0.65901
C         46.60695        30.92296         0.54683
C         47.50114        32.93474        -0.77271
C         46.51608        33.79470         0.02718
C         47.16126        36.21871        -1.26081
C         46.11163        35.16127        -0.67054
C         47.59094        37.41279        -0.44577
C         46.53728        38.08997         0.37427
C         47.78565        40.25010        -0.07579
C         46.51781        39.60275         0.21909
C         47.75294        41.75732        -0.34128
C         46.64268        42.53407         0.36476
C         48.03866        44.64828         0.54427
C         46.68060        43.88386         0.54611
C         47.66827        46.03407         0.12196
C         46.64915        46.71066         0.26196
C         50.33185        28.96577        -0.41152
C         48.98279        29.46515        -0.18207
C         49.95672        31.54237        -1.20878
C         48.78981        30.70791        -0.72070
C         49.59688        32.72137        -2.10787
C         48.29049        33.34204        -1.80846
C         49.62659        35.97010        -1.88054
C         48.34036        35.58662        -1.92285
C         50.00141        37.21936        -1.07836
C         48.78768        38.05064        -0.66206
C         50.11463        40.23537        -0.98060
C         48.89919        39.49537        -0.42059
C         50.34876        41.59474        -0.30320
C         49.10710        42.42132        -0.10237
C         50.54090        44.35894         0.02582
C         49.11314        43.97058        -0.30320
C         51.31878        29.52013        -0.92571
C         52.26543        31.77182        -1.97097
C         51.35009        30.59673        -1.92821
C         52.02553        32.95175        -2.24715
C         50.74297        33.64179        -2.52003
C         51.95895        35.86904        -2.40830
C         50.67946        35.15824        -2.73756
C         52.18529        37.00863        -2.00233
C         51.10205        38.05012        -1.83081
C         52.41213        40.28035        -1.74579
C         51.40450        39.33382        -1.06529
C         52.53770        41.44697        -1.27624
C         51.65584        42.31425        -0.62171
C         51.53667        43.68181        -0.35212
O         37.92848        40.07323         1.85214
O         36.31660        39.85505        -1.39040
O         36.81069        31.57983        -1.58769
O         43.11949        36.78228         2.39652
O         39.15958        33.65286        -0.57460
O         34.50077        44.88453        -1.85729
O         43.78116        29.46044         3.04906
O         34.62600        42.43744        -2.22662
O         35.81039        42.69885         1.17308
O         40.59770        28.96986         2.93009
O         50.03590        32.80369        -3.50313
O         49.82101        41.84639         1.02372
O         45.08707        42.08230         2.16983
O         39.93481        32.54426         2.88302
O         45.87815        28.02761         2.67155
O         33.00223        35.52230         0.77084
O         47.99952        34.43513        -2.63885
O         40.80068        46.45378         2.58092
O         32.03983        33.23027         0.35512
O         42.52967        31.54947         2.83165
O         36.95893        43.95710        -1.98488
H         36.12483        43.90826        -2.51760
O         38.38108        36.17197        -0.87837
H         38.62286        35.26199        -1.20067
O         36.35819        29.48457         0.98563
H         36.24285        28.55710         1.28119
O         46.70970        31.04834        -1.87877
H         47.10508        31.52477        -2.64063
O         43.55457        30.41260        -0.45890
H         44.29388        29.87799        -0.85795
O         38.75933        35.24531         2.69649
H         38.29970        36.07300         2.97868
O         47.40447        41.88212        -1.74754
H         48.14404        41.46735        -2.26508
O         43.46713        39.93444        -0.82053
H         44.06620        39.55900        -1.49888
O         41.83275        43.83330        -0.70111
H         41.43119        42.99921        -1.04270
O         37.28907        37.39713         2.42795
H         37.15397        38.32761         2.71676
O         31.48461        39.56306        -2.66847
H         30.74716        38.97586        -2.95786
O         45.77673        46.18035         2.38825
H         45.42797        47.00714         2.78992
O         43.16118        26.99556         3.67739
H         43.69786        27.74278         4.02800
O         45.36146        34.67633        -1.80359
H         45.45482        35.33487        -2.53335
O         31.47495        42.19579         1.30803
H         30.78870        42.70477         1.78620
O         32.64171        31.31082        -3.61736
H         33.40890        30.74973        -3.87397
O         50.65403        38.35930        -3.14402
H         50.57049        37.52680        -3.66476
O         43.84531        26.47652         0.09206
H         42.99906        25.99830        -0.04246
O         49.75431        40.65569        -2.33120
H         49.94947        39.91772        -2.96436
O         48.83532        44.25924        -1.65640
H         49.55068        43.90874        -2.22568
O         50.48794        32.15249        -0.03888
H         50.60989        31.46674         0.65267
O         35.31098        29.93545        -3.27269
H         35.72995        29.14377        -3.67187
O         48.40735        28.90455         1.99910
H         47.72718        28.51603         2.60112
O         39.53900        44.05600        -1.28287
H         38.72981        43.99387        -1.84939
O         50.35818        35.41606        -4.09975
H         50.16202        34.56284        -4.54747
O         46.95316        37.86742         1.76410
H         46.26535        38.24695         2.35300
O         33.80966        38.37637         1.08031
H         32.83048        38.41057         1.23187
O         47.16845        34.06988         1.29160
H         46.45835        34.28399         1.94730
O         34.58483        34.08229        -2.10360
H         34.95644        33.27463        -2.52072
O         33.15185        37.43765        -2.41092
H         32.81619        38.28726        -2.79033
O         45.17313        44.81582        -0.92358
H         45.20118        43.92478        -1.33209
O         40.90833        27.15285        -0.25961
H         40.72148        26.23905        -0.57232
O         31.17622        38.05522         0.61820
H         30.37935        38.61158         0.76853
O         32.58464        30.71542         0.13661
H         31.95380        31.31374         0.60086
O         43.41546        40.16639         2.84509
H         44.15071        40.81811         2.98142
O         50.60863        36.77816         0.15762
H         49.90395        36.50917         0.78410
O         44.53005        33.83343         2.39669
H         43.72708        34.01672         2.96044
O         41.99702        34.00087         3.07089
H         41.41579        33.38387         3.58520
O         42.31042        33.05206        -0.47299
H         42.82580        32.35234        -0.93575
O         40.28121        40.66139         3.04615
H         39.38092        41.00816         3.23357
O         38.54606        26.77002         2.51244
H         37.64915        26.38233         2.57069
O         47.31376        31.26773         1.74607
H         47.37392        32.25511         1.80082
O         48.47284        44.68445         1.89122
H         47.80216        45.17591         2.41668
O         40.84658        41.27754        -0.55449
H         40.15376        40.75012        -1.00501
O         35.75504        37.08534        -1.78357
H         35.93419        37.92542        -2.25878
O         43.29641        46.18818         2.86098
H         42.48796        45.97247         3.37904
O         45.93259        28.95863        -0.75464
H         46.46545        29.31392        -1.50556
O         39.01550        28.79218        -1.43406
H         39.87847        28.31625        -1.36648
O         40.55754        37.57581        -0.78805
H         39.79798        37.08719        -1.20079
O         38.21254        30.66708         2.61111
H         38.79294        30.19175         3.24735
O         51.84222        39.05442         0.23379
H         52.38756        38.23895         0.23014
O         35.02715        32.52930         1.18920
H         34.93985        33.28242         1.81138
O         38.43896        47.25782         2.40834
H         39.22246        47.55807         2.92283
O         46.41591        36.87137        -2.35162
H         45.69219        37.39321        -1.93893
O         39.71094        44.07519         2.32280
H         40.18161        44.54569         3.04686
O         43.86223        46.97269        -0.63056
H         44.71613        47.04982        -1.10975
O         41.65730        42.71622         2.74142
H         41.62108        41.83548         3.19245
O         51.07738        30.14005        -3.19196
H         51.10622        30.89004        -3.82505
O         35.17700        36.22225         1.73464
H         34.43308        36.86260         1.85625
