         762
 CSIRO Nanostructure Databank - Neutral Graphene Oxide Data Set
C         23.45538        24.81906         2.94951
C         22.15320        25.05803         2.53101
C         23.01664        26.66363         0.95095
C         21.93745        25.93352         1.46744
C         22.83199        28.80743        -0.04299
C         21.61180        29.50569         0.24051
C         22.73192        31.64258        -0.05305
C         21.61423        30.85296         0.46016
C         22.85006        33.09399         0.24135
C         21.72482        33.79730         0.66364
C         23.00309        35.86121         0.89239
C         21.79654        35.15388         0.98715
C         23.04751        37.28205         1.22418
C         21.93148        37.99880         1.61326
C         22.96961        40.18099         1.17654
C         21.89777        39.42175         1.58004
C         22.72766        41.60076         0.70537
C         21.94275        42.43305         1.70882
C         23.11481        44.58088         1.23713
C         22.03587        43.76244         1.85547
C         22.89856        46.00048         0.75856
C         21.80267        46.79178         0.71401
C         23.02899        48.62773         1.77801
C         21.92991        48.17883         1.12441
C         26.08576        23.72166         3.13358
C         25.89644        24.97287         2.58051
C         24.55854        25.49273         2.36966
C         25.47109        27.48321         1.10565
C         24.33561        26.53927         1.42701
C         25.33876        28.83039         0.41144
C         24.06278        29.43399        -0.09208
C         25.29386        31.62581        -0.72600
C         24.01558        30.86630        -0.42034
C         25.28296        33.08089        -0.28843
C         24.10668        33.77577         0.11925
C         25.42136        35.88366         0.27993
C         24.17384        35.17784         0.43752
C         25.49766        37.30405         0.54259
C         24.32141        37.99331         1.10035
C         25.41021        40.25011         0.37451
C         24.28263        39.54962         1.04185
C         25.29291        41.58727         0.05235
C         24.00338        42.31502         0.22697
C         25.34371        44.54595         0.07171
C         24.06751        43.80725         0.34088
C         25.40969        45.95238         0.57458
C         24.20567        46.40836         1.38326
C         25.60588        48.60284         1.81840
C         24.28105        47.83615         1.90517
C         25.61665        50.08380         1.84713
C         28.36872        23.54041         2.26920
C         27.31633        23.03800         3.03831
C         28.28127        24.86938         1.73895
C         27.11102        25.74889         2.14158
C         27.93697        27.50006         0.59168
C         26.84021        26.88350         1.17111
C         27.85409        28.86764         0.08911
C         26.59482        29.53761         0.00264
C         27.75951        31.63064        -0.55234
C         26.55634        30.89532        -0.32495
C         27.70327        33.03847        -0.76101
C         26.49664        33.77891        -0.47637
C         27.84848        35.85533        -0.21183
C         26.54463        35.18449        -0.20829
C         27.92881        37.35419         0.13043
C         26.65746        38.05982         0.33258
C         27.83974        40.16773        -0.14187
C         26.65067        39.50024         0.19970
C         27.80634        41.59386        -0.50982
C         26.47580        42.34977        -0.43782
C         27.78548        44.50064        -0.33870
C         26.57883        43.80975        -0.22489
C         27.86719        45.93055        -0.01903
C         26.76858        46.51418         0.77085
C         27.94735        48.74207         0.68023
C         26.86164        47.94668         1.27567
C         27.79344        50.25821         0.59638
C         26.63625        50.81452         1.38300
C         30.68333        20.53671         1.85072
C         29.54658        21.35349         2.17518
C         30.78088        23.38226         1.47712
C         29.52279        22.70787         1.96325
C         30.55175        24.69982         0.76747
C         29.33753        25.43694         1.00430
C         30.32957        27.41444        -0.05957
C         29.21784        26.79601         0.51361
C         30.29939        28.83584        -0.34529
C         29.04214        29.56381        -0.23989
C         30.22900        31.68807        -0.82360
C         29.01210        30.94961        -0.55869
C         30.20326        33.02570        -1.15699
C         28.91243        33.73024        -1.19635
C         30.24726        35.99377        -1.00200
C         28.96675        35.28609        -1.00048
C         30.30431        37.32588        -0.62707
C         29.14244        38.08336        -0.24900
C         30.30796        40.26471        -0.46526
C         29.10661        39.49337        -0.26432
C         30.30641        41.66392        -0.56029
C         29.05460        42.38000        -0.51171
C         30.24671        44.52600        -0.85449
C         29.01468        43.76695        -0.55598
C         30.21351        46.03839        -0.75276
C         29.02131        46.68921        -0.17110
C         30.25654        48.92656        -0.32758
C         29.04230        48.12156         0.08732
C         30.30635        50.38986         0.24197
C         29.13180        50.83878         1.01999
C         30.54391        52.25131         2.46568
C         29.28505        51.65625         2.10459
C         32.96909        18.86278         1.07744
C         32.90783        20.23618         0.74062
C         31.73621        21.02365         1.12020
C         32.75586        23.03245        -0.13041
C         31.64992        22.43628         0.66950
C         32.82869        24.51158        -0.22362
C         31.62028        25.26970         0.07576
C         32.68230        27.30207        -0.78425
C         31.56163        26.67742        -0.26398
C         32.65072        28.74440        -1.07714
C         31.44807        29.50146        -0.71168
C         32.77594        31.64609        -1.10450
C         31.53471        30.99379        -0.52677
C         32.78567        33.12142        -1.22368
C         31.46481        33.82198        -1.24326
C         32.67840        36.01284        -1.96554
C         31.40750        35.27653        -1.62455
C         32.68251        37.44505        -1.51869
C         31.60300        38.02366        -0.69256
C         32.78231        40.31389        -0.94687
C         31.59019        39.54838        -0.54461
C         32.76689        41.72203        -0.85556
C         31.54908        42.41028        -0.68456
C         32.75012        44.55909        -1.02198
C         31.54651        43.82983        -0.81292
C         32.68654        46.02775        -1.23321
C         31.48987        46.77816        -0.78527
C         32.74246        48.81831        -1.04176
C         31.48899        48.15712        -0.72565
C         32.74977        50.73935        -0.01522
C         31.59160        51.02486         0.63946
C         32.97008        52.68032         1.89743
C         31.68542        51.95453         1.76181
C         33.00724        54.06121         2.38682
C         35.19907        18.67779         0.14852
C         34.06789        18.08922         0.73886
C         35.20854        20.07935        -0.08675
C         34.02329        20.83587         0.10993
C         35.26449        22.95052        -0.55581
C         33.94795        22.19272        -0.57974
C         35.24944        24.38497        -0.79203
C         33.97006        25.10459        -0.72261
C         35.18467        27.27877        -1.36035
C         33.89940        26.53196        -1.10470
C         35.20490        28.72998        -0.98603
C         33.95420        29.50219        -1.22835
C         35.25002        31.68844        -1.19142
C         33.96965        30.98274        -1.10391
C         35.29225        33.00163        -1.57354
C         34.01845        33.74477        -1.83493
C         35.37016        35.87951        -2.19112
C         34.01108        35.22418        -2.18258
C         35.54334        37.23464        -2.39544
C         33.65991        38.31270        -1.93329
C         35.26216        40.22587        -1.39530
C         33.89277        39.62687        -1.44507
C         35.24839        41.74106        -1.53814
C         34.08816        42.43422        -0.75702
C         35.22643        44.62039        -1.28903
C         34.00340        43.91257        -1.09382
C         35.28643        46.02604        -1.25657
C         34.02681        46.78767        -1.29196
C         35.26272        49.06421        -0.95712
C         33.98276        48.22805        -0.99514
C         35.25723        50.30132        -0.05080
C         34.05309        50.77774         0.71913
C         35.34029        52.97416         1.23845
C         34.11862        52.14798         1.36337
C         35.48966        54.14898         2.19085
C         34.14328        54.79404         2.43615
C         37.62542        15.76463        -0.25749
C         36.45698        16.42566        -0.03166
C         37.70138        18.62813        -0.45498
C         36.35192        17.86385        -0.28351
C         37.67956        20.09621        -0.29547
C         36.46004        20.78019        -0.34611
C         37.74898        22.88762        -0.73489
C         36.44527        22.22452        -0.50025
C         37.74997        24.39381        -0.96810
C         36.44297        25.08746        -0.95887
C         37.76713        27.30763        -1.14749
C         36.47917        26.53204        -1.28027
C         37.76484        28.78126        -0.94116
C         36.49102        29.47155        -0.72217
C         37.78963        31.67673        -0.82100
C         36.46018        30.99965        -0.54538
C         37.70718        33.18896        -0.89309
C         36.64717        33.59050        -1.94601
C         37.91743        35.90410        -1.97132
C         36.63047        35.10583        -2.15933
C         37.88024        37.37245        -1.81220
C         36.67561        38.03119        -2.00805
C         37.85112        40.25354        -1.68164
C         36.56872        39.48323        -1.64257
C         37.84164        41.68602        -1.56236
C         36.57153        42.39507        -1.08933
C         37.78177        44.63234        -1.41249
C         36.49213        43.87195        -1.47671
C         37.75959        46.07480        -1.11666
C         36.52363        46.73731        -1.12251
C         37.78698        48.85328        -0.43411
C         36.46501        48.14911        -0.66182
C         37.78807        50.30684        -0.16412
C         36.55080        50.83100         0.52124
C         37.87778        52.99631         0.84928
C         36.56023        52.34601         0.66061
C         37.93016        54.31174         1.50825
C         36.67491        55.03734         1.82815
C         37.95025        57.15683         1.83675
C         36.73986        56.38528         2.02592
C         40.17061        14.37963        -0.86327
C         40.13938        15.69613        -0.46642
C         38.88831        16.45511        -0.40188
C         40.17822        18.53762         0.06037
C         38.92701        17.83746        -0.30232
C         40.17098        20.03471         0.10491
C         38.93373        20.80925        -0.18306
C         40.27769        22.90377        -0.25903
C         38.97713        22.17877        -0.29953
C         40.26559        24.41265        -0.47118
C         38.99272        25.17722        -0.69493
C         40.24076        27.34575        -0.89128
C         38.99429        26.54359        -0.79858
C         40.19733        28.81033        -0.73567
C         38.97720        29.49710        -0.79497
C         40.25829        31.67985        -0.75785
C         38.96590        30.97697        -0.75673
C         40.24642        33.16257        -0.68448
C         39.04304        33.87683        -1.13250
C         40.35787        35.97414        -1.36720
C         39.12127        35.20732        -1.45009
C         40.34543        37.39963        -1.54385
C         39.10662        38.10049        -1.64343
C         40.33976        40.22838        -1.60299
C         39.08178        39.53102        -1.65090
C         40.32594        41.67726        -1.17831
C         39.02875        42.39551        -1.42089
C         40.30059        44.62677        -1.04356
C         39.01369        43.84505        -1.10510
C         40.28799        46.09737        -1.13381
C         39.01962        46.77820        -0.98791
C         40.22772        48.94600        -1.07194
C         39.01351        48.16186        -0.81779
C         40.14435        50.43568        -0.86154
C         38.92385        51.05662        -0.27123
C         40.21251        53.20377         0.14680
C         39.00013        52.41559         0.29091
C         40.28296        54.52387         0.53477
C         39.22496        55.13678         1.34666
C         40.43606        57.45510         1.39218
C         39.14661        56.61025         1.46803
C         40.22192        58.80517         0.74458
C         42.61212        14.30345        -1.00472
C         41.39944        13.70369        -1.15900
C         42.71865        15.61261        -0.35072
C         41.40873        16.36943        -0.11573
C         42.68596        18.52378         0.00562
C         41.47977        17.84377        -0.05445
C         42.70440        19.98634         0.12444
C         41.48276        20.70907         0.05123
C         42.67045        22.65767         0.68928
C         41.47419        22.10550         0.20340
C         42.60929        24.81741         0.42320
C         41.47501        25.23921        -0.20328
C         42.77099        27.34006        -0.38448
C         41.53189        26.60185        -0.75719
C         42.72554        28.81635        -0.24266
C         41.38670        29.56670        -0.19627
C         42.76470        31.68294        -0.68281
C         41.44158        30.99379        -0.70391
C         42.83519        33.17551        -0.64115
C         41.54598        33.93112        -0.62594
C         42.81601        36.03244        -1.13695
C         41.57254        35.33496        -1.07810
C         42.81967        37.42004        -1.39567
C         41.58082        38.11745        -1.55904
C         42.85072        40.28729        -1.92731
C         41.55255        39.54939        -1.64955
C         42.84916        41.75196        -1.52310
C         41.55461        42.45064        -1.61966
C         42.83028        44.65364        -1.24128
C         41.55753        43.93804        -1.45080
C         42.78847        46.09043        -1.08548
C         41.52053        46.78551        -1.10971
C         42.72163        48.91660        -0.88518
C         41.53198        48.22721        -1.04693
C         42.70397        50.38765        -0.68969
C         41.42816        51.15433        -0.60353
C         42.24466        53.46661        -1.17410
C         41.32947        52.64404        -0.61082
C         42.41675        54.92737        -0.89499
C         41.51508        55.30741         0.27970
C         42.67671        57.49536         0.01847
C         41.61118        56.72725         0.72686
C         42.44524        58.79310        -0.31313
C         41.17204        59.41427         0.00453
C         45.19128        15.74579        -0.58460
C         43.96952        16.41022        -0.40316
C         45.19763        18.49418        -0.02665
C         43.95822        17.80382        -0.13022
C         45.19704        19.92640         0.37680
C         43.93508        20.69368         0.25664
C         45.19306        22.92960         0.77005
C         43.94632        22.07749         0.55374
C         45.19352        24.46199         0.51360
C         43.97520        25.19392        -0.00057
C         45.32543        27.32937        -0.41370
C         44.06387        26.59333        -0.55709
C         45.26628        28.79162        -0.40282
C         43.97658        29.46716        -0.74989
C         45.28261        31.59838        -1.32766
C         43.97106        30.90096        -1.11746
C         45.29290        33.14993        -1.28502
C         44.06809        33.90721        -0.99854
C         45.31965        36.02750        -1.09156
C         44.07551        35.30360        -1.02197
C         45.33319        37.41735        -1.22803
C         44.08065        38.15152        -1.38567
C         45.35066        40.26937        -1.45609
C         44.08555        39.52355        -1.51732
C         45.30697        41.76475        -1.33953
C         44.00224        42.48429        -1.35675
C         45.33934        44.66678        -1.23816
C         44.01205        43.93339        -1.23337
C         45.26312        46.12051        -0.79895
C         43.99744        46.80087        -0.87497
C         45.16775        48.90559        -0.35888
C         43.98260        48.22677        -0.72089
C         45.13629        50.36955        -0.15374
C         44.00749        51.07635        -0.76769
C         45.27588        53.21012        -0.86956
C         44.17286        52.36260        -1.19575
C         45.16044        54.70382        -1.16267
C         43.86342        55.40965        -0.66638
C         45.16405        57.45203        -0.25681
C         43.91650        56.75727        -0.32116
C         46.39494        16.42640        -0.47142
C         47.73576        18.49041        -0.08777
C         46.41787        17.80074        -0.17716
C         47.78782        19.96697         0.26409
C         46.48781        20.68594         0.54992
C         47.80235        22.96394         0.29122
C         46.53761        22.20726         0.66217
C         47.80258        24.47516         0.20456
C         46.50151        25.23491         0.29104
C         47.76766        27.35906        -0.37402
C         46.50753        26.65701        -0.18737
C         47.79720        28.74596        -0.63364
C         46.57825        29.56755        -0.52494
C         47.78743        31.57780        -1.61877
C         46.53613        30.92264        -1.08637
C         47.85650        33.07672        -1.28130
C         46.60134        33.78037        -0.96701
C         47.87862        35.97949        -1.11582
C         46.59438        35.30544        -0.87841
C         47.83888        37.42754        -1.11436
C         46.58724        38.12450        -1.15447
C         47.78062        40.24765        -0.85653
C         46.59446        39.54182        -1.10645
C         47.73528        41.67355        -0.47020
C         46.43365        42.41586        -0.59752
C         47.69994        44.61114        -0.19821
C         46.41490        43.91013        -0.47628
C         47.76660        46.08561        -0.58603
C         46.42884        46.80041        -0.46175
C         47.60959        48.96561         0.08114
C         46.41455        48.22687        -0.20313
C         47.68798        50.39412        -0.00622
C         46.42768        51.15553        -0.05880
C         47.69518        53.27723        -0.45864
C         46.44238        52.58317        -0.44488
C         47.68040        54.69679        -0.63817
C         46.43020        55.41471        -0.72383
C         46.37099        56.78423        -0.42118
C         50.08683        18.62187        -0.86960
C         48.88838        17.92445        -0.79982
C         50.15995        19.99151        -0.59788
C         48.90740        20.73901        -0.37534
C         50.16590        23.01219        -0.97092
C         48.89481        22.23670        -0.46909
C         50.23800        24.44353        -0.46540
C         49.00008        25.18403        -0.31643
C         50.24494        27.24511        -0.80642
C         48.97594        26.56339        -0.46814
C         50.28828        28.72687        -0.97544
C         49.01027        29.47884        -0.91341
C         50.32029        31.52442        -1.37716
C         49.02635        30.83088        -1.17159
C         50.32519        33.02838        -1.53362
C         49.04514        33.78221        -1.31101
C         50.33489        35.98453        -1.41618
C         49.05930        35.23966        -1.22833
C         50.31791        37.48261        -1.18170
C         49.03195        38.16342        -0.99906
C         50.24939        40.28809        -0.57564
C         49.02522        39.56797        -0.79004
C         50.22997        41.71824        -0.38584
C         49.00105        42.42849        -0.34720
C         50.19161        44.54755        -0.07280
C         48.98065        43.83898        -0.18618
C         50.16978        45.98265         0.29385
C         48.87291        46.74039         0.21586
C         50.16025        48.97825         0.52082
C         48.85786        48.23625         0.39196
C         50.17026        50.51714         0.49557
C         48.88872        51.12236        -0.03533
C         50.15422        53.24620        -0.36511
C         48.90855        52.54745        -0.27154
C         50.12402        54.64812        -0.52987
C         48.93529        55.35789        -0.63491
C         52.62361        20.07724        -0.01095
C         51.45491        20.70797        -0.63997
C         52.73686        22.90978        -0.39663
C         51.48530        22.21619        -0.79596
C         52.73535        24.38338        -0.51515
C         51.44810        25.11274        -0.43433
C         52.64479        27.28799        -0.18219
C         51.49427        26.55922        -0.42870
C         52.70707        28.73662        -0.21093
C         51.53705        29.46981        -0.67691
C         52.69524        31.62835        -0.43964
C         51.53580        30.83030        -0.87079
C         52.87966        33.00820        -1.00053
C         51.64476        33.76183        -1.43087
C         52.86697        35.94634        -0.79749
C         51.65842        35.25984        -1.33812
C         52.71935        37.37114        -0.37464
C         51.52581        38.18389        -0.71826
C         52.79005        40.31351        -0.37455
C         51.47888        39.55331        -0.48278
C         52.68566        41.76696         0.00951
C         51.45737        42.44528        -0.18068
C         52.65709        44.59430         0.13414
C         51.43566        43.86424        -0.03902
C         52.62928        46.04558         0.10037
C         51.44473        46.73497         0.23500
C         52.65646        48.96494        -0.17989
C         51.38440        48.21354         0.08163
C         52.69049        50.42843         0.12317
C         51.41978        51.16126        -0.05210
C         52.68680        53.16010        -0.64566
C         51.42229        52.51239        -0.32331
C         53.75866        20.77924         0.22988
C         55.17317        22.88708         0.26433
C         53.86136        22.20594        -0.00173
C         55.22813        24.39647         0.22381
C         53.98237        25.14114        -0.15498
C         55.02843        27.27705         0.79862
C         53.82145        26.54611         0.32153
C         55.08153        28.74738         0.61765
C         53.87817        29.41805         0.14541
C         55.24324        31.58583         0.04258
C         53.88690        30.89826         0.11726
C         55.14077        33.09021         0.20578
C         54.11812        33.78214        -0.60678
C         55.29849        36.01547        -0.22544
C         54.03349        35.26923        -0.54073
C         55.24325        37.47194         0.11069
C         53.88579        38.07859         0.22939
C         55.06128        40.27679         0.85637
C         53.82631        39.55936         0.44651
C         55.05128        41.77338         0.82475
C         53.85202        42.48320         0.33210
C         55.15622        44.62484         0.38096
C         53.87778        43.90658         0.30921
C         55.18841        46.02040         0.14197
C         53.92475        46.72269        -0.16860
C         55.24034        48.94134        -0.14698
C         53.95528        48.22071        -0.32076
C         55.25818        50.35524        -0.18771
C         53.99960        51.15170        -0.04578
C         53.88729        52.53753        -0.53252
C         57.32936        22.88641         1.49605
C         56.26987        22.21223         1.01202
C         57.40557        24.36628         1.55559
C         56.30355        25.14859         0.93000
C         57.49688        27.30057         1.33818
C         56.27753        26.51155         1.02154
C         57.31889        28.74403         1.78847
C         56.22396        29.42839         0.97773
C         57.42000        31.64257         1.47298
C         56.21301        30.90874         0.99620
C         57.46559        33.13456         1.29086
C         56.40635        33.79166         0.46030
C         57.66657        36.03622         0.78736
C         56.53378        35.26640         0.18824
C         57.63067        37.44949         0.89756
C         56.41048        38.18833         0.70292
C         57.58131        40.31607         1.09612
C         56.36075        39.55994         0.91921
C         57.60569        41.72614         1.01184
C         56.35177        42.50967         0.94938
C         57.62455        44.60154         0.46778
C         56.38030        43.93488         0.56708
C         57.62995        45.99685         0.19933
C         56.41606        46.72745         0.08275
C         57.68265        48.89327        -0.04619
C         56.44402        48.18932        -0.06985
C         57.67880        50.29920        -0.13563
C         56.49362        51.01935        -0.19017
C         59.95737        24.42869         2.24598
C         58.66847        25.09617         1.95622
C         59.87733        27.32709         2.29078
C         58.75426        26.57410         1.68002
C         59.83764        28.79307         2.19741
C         58.64765        29.49735         1.87107
C         59.89368        31.62612         1.91421
C         58.68074        30.90842         1.76563
C         60.03676        33.09692         1.53208
C         58.73627        33.87245         1.49729
C         59.96518        36.01600         1.66466
C         58.81874        35.33568         1.20739
C         60.00183        37.44428         1.60328
C         58.81237        38.16068         1.27436
C         60.02317        40.30487         1.46629
C         58.81027        39.59283         1.27280
C         60.04551        41.73464         1.29440
C         58.83439        42.44476         1.01668
C         60.10240        44.52494         0.76438
C         58.86325        43.86036         0.73905
C         60.21322        45.94205         0.33968
C         58.91152        46.70207         0.01117
C         60.15983        48.81257         0.20091
C         58.94597        48.17222         0.05944
C         61.00664        25.17499         2.66857
C         60.94528        26.61658         2.76738
C         61.02803        29.52515         2.37394
C         61.05851        30.90475         2.21573
C         61.05987        33.89290         2.31066
C         61.03760        35.24408         2.28387
C         61.18470        38.19244         1.88246
C         61.20063        39.56253         1.78546
C         61.25851        42.46434         1.36198
C         61.28092        43.81836         1.10627
C         61.36513        46.75700         0.72852
C         61.35100        48.10908         0.55532
O         37.49284        35.45593        -3.30539
O         34.48919        37.92577        -2.97719
O         37.88282        23.45532        -2.08604
O         42.84265        27.97370         0.93905
O         27.23006        46.81400         2.12075
O         33.85381        34.20075        -3.21514
O         40.57348        23.48926        -1.58762
O         50.37280        32.15515        -2.71907
O         49.25033        46.10819         1.45868
O         23.60088        43.20030        -0.89513
O         55.56630        37.03318        -1.25370
O         32.27667        33.74680         0.01769
O         47.56111        22.52812         1.65577
O         36.87600        18.22527        -1.59298
O         45.08967        23.90091         1.84019
O         35.69185        28.83446         0.39843
O         55.48629        42.30266         2.13078
O         49.47403        48.53614         1.71177
O         40.02821        49.90417        -2.21165
O         42.53142        23.84423         1.40515
O         25.09839        48.05016         3.07868
O         59.75998        46.13564        -1.03920
O         53.29201        40.39465        -1.69607
O         45.81323        20.12790         1.70886
O         22.72104        27.42478        -0.18003
O         39.64357        44.15241         0.18441
O         45.61985        41.17124        -2.64215
O         25.33986        28.72886         1.90425
O         47.37464        25.10493         1.45244
O         23.02841        31.22890        -1.43802
O         43.04138        32.36654         0.59138
O         46.72168        44.37223         0.86095
O         31.68799        35.67418        -2.99789
O         32.71576        50.19663        -1.29532
O         48.35181        21.44400        -1.57420
O         57.78310        33.72052         2.60388
O         53.96591        47.35984        -1.50139
O         40.03814        19.25473         1.35599
O         43.19514        52.91689        -2.04868
O         46.77412        41.79895         0.66871
O         33.24331        46.46968        -2.50482
O         48.14914        18.99849         1.25849
O         30.03248        50.10826        -1.16711
O         41.41598        43.31316        -2.78783
O         35.98361        39.67313        -0.26201
O         45.87945        29.40491         0.77355
O         46.59457        34.45192         0.32451
O         35.67911        53.15600        -0.18687
O         34.39306        26.84449        -2.47719
O         37.27480        26.87140        -2.47559
O         31.50260        22.56152        -0.77977
O         26.99408        41.86733        -1.71240
O         37.19633        44.24277        -2.70863
O         33.21170        29.10680        -2.41100
O         54.02054        39.86287         1.84680
O         50.36410        36.90037        -2.55044
O         23.98687        45.22462         2.32064
O         43.76149        29.87597        -2.14152
O         51.73874        48.68123        -1.27984
O         45.26677        32.43139        -2.54394
O         41.04911        26.89064        -2.08672
O         30.02687        45.37346        -2.05134
O         42.10887        15.68966         0.98018
O         24.68288        38.82872         2.24664
O         53.62092        24.96088        -1.54715
O         58.51259        27.05024         0.30567
O         57.63077        24.80422         2.95867
O         53.95938        33.14450        -1.96780
O         42.19671        55.65346         1.53481
O         40.77239        33.69972         0.58909
O         38.93041        54.40037         2.57748
O         45.59328        50.87743         1.13305
O         36.75565        42.31439         0.31224
O         31.93565        38.65007         0.58052
O         56.98833        34.31552        -0.82784
O         53.99536        26.78261         1.75635
O         55.72788        23.60081        -0.89802
O         53.43153        50.87557         1.29895
O         37.02822        48.17886         0.67986
O         52.96093        37.39201         1.12187
O         50.31824        27.85100        -2.15795
O         28.64982        34.68894        -2.27866
O         44.03501        25.45473        -1.45214
O         51.72482        21.33741        -1.95309
O         52.93401        31.55135         1.01601
O         25.11662        45.71288        -0.82552
O         56.28133        31.35253         2.39024
O         42.05870        50.69586         0.64164
O         28.22995        36.30543         1.12033
O         51.90877        34.56775        -2.60783
O         37.04429        32.95175        -3.17466
H         36.66398        33.45344        -3.92691
O         35.88166        53.52532         3.45425
H         36.18088        54.22863         4.06778
O         36.59566        50.39759         1.93329
H         36.84043        49.43752         1.92325
O         50.17701        50.94713         1.89480
H         49.65069        50.27782         2.39620
O         42.93398        40.34569        -3.39588
H         43.82473        40.71176        -3.61256
O         35.51248        49.55258        -2.31079
H         34.72362        50.06923        -2.58667
O         40.45669        41.60351         0.28507
H         39.55989        41.65300         0.68544
O         25.40572        31.68070        -2.18521
H         24.48655        31.77625        -2.53033
O         41.90166        55.67644        -2.03942
H         42.51482        55.53831        -2.79244
O         36.24603        31.25189         0.88177
H         35.81621        30.44388         1.25757
O         31.72457        31.17192         0.92785
H         31.87869        32.13958         1.06781
O         60.47600        33.07998         0.13824
H         61.34189        32.62321         0.09456
O         33.72717        21.87988        -1.98408
H         32.75476        21.77838        -2.10266
O         45.82135        44.67015        -2.62922
H         45.06837        44.89581        -3.21693
O         45.10292        54.83485        -2.62923
H         44.41203        54.20199        -2.93659
O         55.80930        31.32357        -1.26861
H         55.34867        31.91390        -1.91754
O         40.81721        57.70294         2.76911
H         41.23608        56.87674         3.09886
O         27.48949        50.61524        -0.77319
H         28.30910        50.47249        -1.31070
O         33.90806        49.79251         1.81569
H         34.73763        49.87785         2.34902
O         37.25042        33.71190         0.37942
H         36.99014        32.95586         0.95861
O         48.16210        46.17389        -1.97866
H         47.46311        45.72372        -2.51509
O         31.57124        23.70596         2.67043
H         30.98917        24.18939         3.29429
O         56.80432        28.67914         3.14577
H         56.52161        29.59382         3.38714
O         49.97889        23.19939        -2.38581
H         50.34850        22.40409        -2.83570
O         35.04967        41.97031        -2.94781
H         35.30057        42.89094        -3.17764
O         21.83831        41.45768        -0.43490
H         22.01210        42.22747        -1.02777
O         34.28966        42.35140         0.66965
H         35.29656        42.30574         0.83981
O         27.56254        26.43600         3.37572
H         28.25888        27.07824         3.11963
O         41.08199        29.73785         1.22469
H         41.76209        30.32671         1.61838
O         47.75863        31.46599        -3.07157
H         48.64890        31.74745        -3.39852
H         23.62210        24.08406         3.74642
H         21.31378        24.52145         2.99268
H         20.93689        26.08006         1.04168
H         20.73001        28.89954         0.49037
H         20.75725        31.33793         0.94583
H         20.75274        33.29261         0.73716
H         20.87911        35.65844         1.31439
H         20.97820        37.48661         1.79950
H         20.91966        39.90325         1.71870
H         21.13794        41.90582         2.24394
H         21.35778        44.28592         2.54658
H         20.80849        46.38747         0.47787
H         23.02636        49.64412         2.19438
H         21.04952        48.83072         1.03446
H         25.24446        23.16975         3.57333
H         24.78879        50.58311         2.37031
H         27.39140        22.04039         3.49057
H         26.57961        51.91133         1.44824
H         30.65678        19.48789         2.17571
H         28.67007        20.84237         2.59813
H         30.56198        52.97812         3.28914
H         28.40167        51.93521         2.69794
H         32.11276        18.37805         1.56369
H         32.05060        54.53128         2.66040
H         34.04920        17.01071         0.94509
H         34.10239        55.83470         2.79191
H         37.64555        14.67240        -0.13916
H         35.56840        15.86449         0.28973
H         37.87303        58.24153         1.99917
H         35.83713        56.94034         2.32155
H         39.23404        13.85340        -1.09359
H         39.28798        59.34007         0.97020
H         43.51645        13.81315        -1.39100
H         41.34145        12.70432        -1.61286
H         43.19132        59.37601        -0.87118
H         40.98665        60.42353        -0.39127
H         45.20757        14.66363        -0.76827
H         45.16646        58.51514         0.02070
H         47.33175        15.86289        -0.56576
H         47.29993        57.33454        -0.21384
H         50.99118        18.10174        -1.21844
H         48.84156        16.90360        -1.20010
H         51.06643        55.21059        -0.56951
H         48.98478        56.44692        -0.76959
H         52.55181        19.02151         0.28730
H         52.66855        54.18974        -1.02915
H         54.61412        20.25319         0.67334
H         54.79592        53.05472        -0.87356
H         58.12934        22.33021         2.00633
H         56.26513        21.11588         1.09193
H         58.62519        50.85419        -0.14468
H         56.52968        52.11652        -0.22279
H         60.02703        23.33292         2.20092
H         60.21762        49.90877         0.17968
H         61.94999        24.68411         2.94730
H         61.81258        27.12867         3.20640
H         61.96492        29.00096         2.60444
H         62.01946        31.42843         2.31833
H         61.87803        33.37660         2.83406
H         61.83291        35.79499         2.80692
H         62.11490        37.66547         2.13445
H         62.14591        40.08915         1.97150
H         62.20421        41.95368         1.58325
H         62.24506        44.34288         1.12408
H         62.24140        46.28003         1.18799
H         62.24488        48.69874         0.80302
