         298
 CSIRO Nanostructure Databank - Neutral Graphene Oxide Data Set
C         30.29043        31.46677         1.61203
C         30.26930        32.71909         1.40148
C         30.19770        35.91575         0.10634
C         30.28048        37.12777        -0.09545
C         30.37271        40.33729        -0.75695
C         30.33421        41.54460        -1.00752
C         32.68779        28.53222         1.25240
C         31.71644        29.25074         1.59473
C         32.52563        31.36971         0.83515
C         31.40960        30.63062         1.43165
C         32.23624        32.68681         0.30634
C         31.17634        33.53504         0.67634
C         32.59024        35.81725         0.10089
C         31.29711        35.07046         0.71905
C         32.58711        37.32968         0.52649
C         31.23226        38.16150         0.43863
C         32.55560        40.34918         0.19030
C         31.49563        39.38935        -0.46476
C         32.70873        41.76925        -0.48455
C         31.54429        42.31870        -1.43809
C         32.83451        44.35493        -1.40808
C         31.72493        43.81396        -1.35388
C         35.41914        27.39027        -0.27948
C         35.17525        28.54721         0.49456
C         34.08414        28.85467         1.26889
C         35.12444        31.58020         0.29150
C         33.89715        30.99389         1.01223
C         35.13888        33.03129         0.88553
C         34.11730        33.88327         0.20238
C         35.19444        35.93797         0.45282
C         33.90720        35.17900         0.53147
C         35.15965        37.38539         0.13236
C         33.87979        38.10936         0.47039
C         35.24405        40.33128         0.21835
C         33.91787        39.62779         0.40201
C         35.27721        41.72201        -0.28070
C         34.05336        42.45780        -0.59434
C         35.49795        44.57346        -1.10970
C         34.20008        43.84186        -1.24527
C         35.68160        46.01343        -0.88745
C         37.83641        27.19985        -0.34017
C         36.42136        26.84325        -0.75957
C         37.78260        28.70301         0.09089
C         36.52810        29.29412         0.76249
C         37.77129        31.55183         0.78282
C         36.47874        30.83048         0.48001
C         37.75095        33.00240         1.21564
C         36.45933        33.76473         1.14119
C         37.78876        35.99291         0.69956
C         36.47445        35.27957         0.92263
C         37.76822        37.33954        -0.02006
C         36.47971        38.11001        -0.07101
C         37.74374        40.23092         0.17664
C         36.53355        39.57823         0.10566
C         37.75310        41.70130         0.35578
C         36.50517        42.46602        -0.02213
C         37.71697        44.58366         0.39912
C         36.78991        43.84980        -0.59869
C         37.63536        46.08815         0.60976
C         36.57166        46.59727        -0.26585
C         40.19607        24.94029        -2.02608
C         39.11410        25.52739        -1.79935
C         40.24793        27.48439        -0.96791
C         38.85595        26.98083        -1.45198
C         40.25868        28.63314         0.06038
C         38.95267        29.40374         0.17413
C         40.34725        31.53266         0.84885
C         39.04089        30.67940         1.07363
C         40.33494        33.04526         0.91757
C         39.06256        33.80146         1.37261
C         40.31172        35.86917         1.17083
C         39.05516        35.22254         0.84507
C         40.11927        37.50674        -0.75138
C         39.03670        38.12944        -0.11351
C         40.12334        40.32625        -0.73112
C         39.01500        39.54551        -0.08221
C         40.29396        41.71275        -0.11483
C         39.06736        42.42695         0.34429
C         40.22958        44.60807         0.54216
C         39.05166        43.91127         0.47533
C         40.22553        46.02464         0.98544
C         38.87203        46.79446         1.05419
C         40.17597        48.84962         0.93793
C         39.09270        48.23642         0.90822
C         42.82878        24.87204        -1.91885
C         41.51669        25.31697        -1.72595
C         42.70279        27.16059        -0.20490
C         41.52576        26.70718        -1.09781
C         42.77616        28.69626        -0.36905
C         41.50368        29.44938        -0.22675
C         42.74960        31.65494        -0.10410
C         41.63326        30.78272         0.46063
C         42.70711        33.15458        -0.03750
C         41.36546        33.89730         0.12753
C         42.77007        36.16670         0.65293
C         41.50600        35.30177         0.72185
C         42.72035        37.40655        -0.29589
C         41.47828        38.09313        -0.82392
C         42.67062        40.29867        -0.39547
C         41.49109        39.61786        -1.15300
C         42.77014        41.80022        -0.79087
C         41.48388        42.56219        -0.44617
C         42.82237        44.62075         0.27774
C         41.49690        43.98008         0.03590
C         42.79799        46.10290         0.49508
C         41.55014        46.76172         1.09418
C         42.80735        48.89966         1.06466
C         41.51027        48.56100         0.43750
C         43.88776        25.38087        -1.45928
C         45.39225        27.18250        -0.15520
C         44.11527        26.47355        -0.53363
C         45.28666        28.65777         0.41351
C         44.09094        29.41979        -0.20303
C         45.30512        31.66532         0.34048
C         44.08367        30.93607        -0.09061
C         45.19866        33.10816         0.72951
C         43.94843        33.87353         0.44860
C         45.21846        35.98331         0.08622
C         44.02655        35.36427         0.31110
C         45.28942        37.41401        -0.42761
C         44.01048        38.21293        -0.34069
C         45.30362        40.25756        -1.07662
C         44.00279        39.55634        -0.56765
C         45.26128        41.92926        -0.98601
C         44.06380        42.42242        -0.12931
C         45.27668        44.57074         0.59012
C         43.99979        43.94398         0.10622
C         45.29400        46.04224         1.00248
C         44.08500        46.85442         0.72307
C         43.86008        48.25676         1.15188
C         47.71809        27.43144         0.02734
C         46.77534        26.88975        -0.60774
C         47.91597        28.76578         0.50205
C         46.60854        29.51480         0.16637
C         47.76627        31.66904         0.79137
C         46.47119        30.87325         0.94750
C         47.75729        32.99895         0.52552
C         46.52005        33.87789         0.81996
C         47.79162        35.91531         0.12752
C         46.48405        35.12910        -0.09178
C         47.81576        37.42694         0.01346
C         46.53954        38.20796        -0.02995
C         47.87293        40.33255        -0.76760
C         46.53590        39.73777        -0.27000
C         47.91865        41.84759        -0.62737
C         46.60150        42.60204        -0.53464
C         47.90905        44.49653         0.68380
C         46.59392        43.93477         0.17617
C         47.65647        45.82410         1.15444
C         46.66983        46.57577         1.04707
C         50.35745        28.98026         1.20854
C         49.03063        29.42410         0.91710
C         50.30846        31.69675         1.12665
C         48.97984        30.92822         1.32780
C         50.31547        32.88409         0.17074
C         48.97446        33.61403        -0.16392
C         50.33509        35.82081        -0.39430
C         49.07180        35.13374         0.05220
C         50.37034        37.33074        -0.08356
C         49.07829        37.99019        -0.65193
C         50.30666        40.21010         0.11927
C         49.14804        39.54032        -0.66556
C         50.48484        41.72057        -0.11540
C         49.19895        42.53446        -0.22433
C         50.43524        44.32047         0.74260
C         49.10228        43.88438         0.45145
C         51.42538        29.53487         1.51858
C         52.77000        31.71586         0.87600
C         51.64676        30.99324         1.47898
C         52.76027        32.90730         0.51535
C         51.63360        33.56194        -0.17684
C         52.75157        35.93581        -0.39466
C         51.61547        35.01110        -0.54163
C         52.77289        37.16528        -0.39866
C         51.62460        38.10661        -0.62986
C         52.66778        40.25560         0.42881
C         51.63932        39.44923         0.02535
C         52.80971        41.46132         0.86510
C         51.81757        42.40283         0.30557
C         51.54534        43.77318         0.75590
O         41.26321        43.63434        -1.40591
O         50.98336        31.83178         2.42066
O         47.22415        37.96817         1.24450
O         39.25893        40.34972        -1.86077
O         36.95939        33.27402         2.41427
O         48.64114        39.98156        -1.95372
O         33.15403        33.22666        -0.56177
O         37.35009        31.31078        -0.60105
O         45.65703        37.15964        -1.92101
O         46.68814        43.85742        -1.26975
O         46.22482        30.66637         2.30948
O         42.65860        32.44466        -1.32241
O         48.76726        42.50182        -1.61320
O         45.45837        39.94714        -2.40980
O         40.79073        32.27935         2.04540
O         34.22593        30.09574         2.00865
O         37.05879        36.05907         2.00603
O         51.02203        32.62411        -1.09612
O         37.10607        45.14743         1.58105
O         41.13526        27.71850        -2.09507
O         37.08302        37.52834        -1.29122
O         43.51436        46.75259        -0.62531
O         39.98436        41.77550         1.30595
O         42.28325        37.20094        -1.66977
O         44.27658        33.40495         1.81837
O         33.11784        42.66665         0.56766
O         35.08565        36.39777        -0.96023
O         48.56881        35.56149         1.34059
O         50.81726        35.37021        -1.68936
O         39.44238        46.21072         2.23038
O         45.13521        44.98862         1.98806
O         33.30788        37.61402         1.74078
O         36.89406        42.24090         1.39467
O         43.65485        29.00982        -1.52135
O         51.49148        42.13338        -1.07188
O         34.59886        40.18095         1.56493
O         39.08766        30.17278         2.37404
O         44.82563        26.18694         0.69113
O         45.01443        31.49937        -1.06390
O         35.09288        43.99896        -2.37518
O         46.71270        29.79454        -1.22382
H         46.92685        28.96606        -1.70417
O         45.01512        28.48734         1.79302
H         45.38495        29.28321         2.29724
O         44.59500        37.52877        -2.78181
H         44.73090        38.53421        -2.87100
O         46.64437        34.31259         2.17955
H         46.40464        33.56474         2.76727
O         41.57683        48.60936        -0.92666
H         42.47187        48.31213        -1.21671
O         44.20357        41.89986         1.21237
H         45.03094        41.35467         1.29176
O         48.71426        33.40602        -1.55654
H         49.57882        33.33325        -2.02730
O         40.32891        37.04848         1.83741
H         39.46576        37.19893         2.27430
O         31.31869        35.37931         2.10293
H         30.48704        35.07335         2.52173
O         39.23348        34.01872         2.79238
H         39.60098        33.18419         3.17278
O         50.38908        37.48207         1.34617
H         49.70250        36.86473         1.72523
O         45.09993        42.37072        -2.31334
H         45.26553        41.56910        -2.89039
O         32.46353        35.75284        -1.32036
H         33.34868        35.94815        -1.71042
O         36.69526        29.10762         2.17139
H         37.60611        29.47309         2.44725
O         46.44694        34.63393        -1.43463
H         46.23917        35.37887        -2.04829
O         30.79951        38.50171         1.72790
H         31.55205        38.40243         2.35323
O         46.42066        40.34465         1.05119
H         46.82718        39.71551         1.69949
O         39.91064        36.40675        -1.43937
H         40.77286        36.12148        -1.84598
O         48.94730        37.50825        -1.99477
H         48.75316        38.27602        -2.58525
O         32.04403        40.61802         1.48895
H         32.61418        41.31143         1.89447
O         37.61902        43.65512        -1.76045
H         37.03818        43.49968        -2.53981
O         41.60003        39.74083        -2.54910
H         40.68702        39.95797        -2.87795
O         41.84618        46.91415         2.45529
H         40.99501        46.93972         2.95486
O         42.27602        40.16962         0.97952
H         42.87126        40.74262         1.52647
O         38.21496        26.41089         0.75809
H         37.66938        26.64590         1.53778
O         34.53039        32.83057         2.20859
H         35.27105        32.75059         2.86337
O         38.47757        27.71812        -2.58275
H         39.23792        27.74777        -3.20434
O         42.85664        41.83283        -2.20402
H         42.55458        42.71731        -2.51363
O         40.39417        28.08967         1.39324
H         39.96905        28.75729         2.02325
O         32.03129        38.91841        -1.69712
H         31.42366        38.24401        -2.07245
O         42.20454        30.32938         1.73678
H         41.45899        30.17160         2.36303
O         42.41640        26.76979         1.11731
H         43.18922        26.98454         1.68939
O         40.77527        34.04212        -1.18914
H         41.24550        33.40555        -1.78659
O         51.46274        38.31292        -2.02403
H         52.23810        38.79706        -2.37610
O         34.85868        31.55715        -1.10801
H         35.71813        31.60300        -1.58607
O         48.76816        30.89914         2.74481
H         47.79414        30.71677         2.90368
O         49.86566        40.12762         1.49965
H         50.00955        39.18966         1.80068
O         31.87286        41.92220        -2.74463
H         31.16441        42.19710        -3.36188
O         43.00153        36.74173         1.95577
H         43.14501        36.01347         2.59644
