         280
 CSIRO Nanostructure Databank - Neutral Graphene Oxide Data Set
C         30.31332        31.65385        -0.55052
C         30.27952        32.87976        -0.41344
C         30.20304        36.18859        -0.16872
C         30.18465        37.40195         0.05410
C         30.15177        40.69505         0.36904
C         30.17386        41.92844         0.44193
C         32.67955        28.83366        -1.12671
C         31.59573        29.40853        -0.95733
C         32.70232        31.63086        -1.25876
C         31.08710        30.72634        -1.38790
C         32.61383        33.15027        -1.14227
C         31.30470        33.85571        -0.84779
C         32.62027        36.12893        -0.47020
C         31.29809        35.35019        -0.65886
C         32.62554        37.58259         0.01430
C         31.29484        38.35609         0.15900
C         32.54352        40.49461         0.86771
C         31.20927        39.74131         0.72899
C         32.63320        41.98211         0.61245
C         31.31230        42.83640         0.52157
C         32.68378        44.53710        -0.53071
C         31.58502        44.04535        -0.24325
C         35.34829        27.16186        -0.18095
C         35.22578        28.60246        -0.48472
C         34.04380        29.34760        -0.99316
C         35.16568        31.63622        -0.49897
C         33.97649        30.87699        -1.02291
C         35.23876        33.12519        -0.88506
C         33.93139        33.98058        -1.15422
C         35.08307        35.88826         0.30302
C         33.84375        35.25925        -0.27032
C         35.16617        37.35001         0.80107
C         33.84413        38.16766         0.70497
C         35.15485        40.47407         1.04619
C         33.83978        39.66995         0.93895
C         35.16191        41.68570         0.06680
C         33.86898        42.42970        -0.16118
C         35.24346        44.44803        -1.19160
C         33.93463        43.81891        -0.83300
C         35.49619        45.88973        -1.15359
C         37.68852        27.01843         0.54511
C         36.40834        26.55484         0.00619
C         37.61347        28.55757         0.66625
C         36.23136        29.31986         0.47261
C         37.67458        31.50597         0.09130
C         36.31515        30.85728         0.14458
C         37.71717        32.98800        -0.11180
C         36.47234        33.81163        -0.39272
C         37.67261        35.94061         0.08031
C         36.41855        35.12575         0.37460
C         37.66357        37.43347         0.12713
C         36.35496        38.16838         0.29545
C         37.68804        40.36745         0.79350
C         36.37801        39.63852         0.59614
C         37.75082        41.79296         0.32951
C         36.50429        42.33687        -0.33527
C         37.90668        44.51384        -0.95678
C         36.58400        43.70450        -0.98423
C         37.90811        46.03274        -0.89290
C         36.51037        46.48581        -0.77445
C         40.31764        24.34917        -0.17386
C         39.24832        25.03067         0.03399
C         40.27373        27.11089         0.44535
C         38.97847        26.35912         0.31030
C         40.24989        28.60277         0.62740
C         38.91495        29.32916         0.78335
C         40.24691        31.48626         0.38059
C         38.90793        30.81944         0.65344
C         40.23256        32.95833         0.13598
C         38.92745        33.66743         0.52766
C         40.23207        35.97506         0.23388
C         38.95740        35.20921         0.41233
C         40.20695        37.47759         0.06562
C         38.93557        38.11874         0.55835
C         40.25037        40.33402         0.95991
C         38.95180        39.56745         0.90750
C         40.30933        41.79580         0.64804
C         39.09620        42.40030        -0.01763
C         40.49101        44.57577        -0.46148
C         39.18956        43.77614        -0.59749
C         40.42740        46.07407        -0.34890
C         39.02420        46.73689        -0.16163
C         40.29609        48.85641        -0.14039
C         39.30871        48.18234        -0.44589
C         42.88021        24.33529         0.47422
C         41.48974        24.76113         0.61214
C         42.80612        27.06670         1.10401
C         41.49842        26.31196         0.85938
C         42.83765        28.57219         1.13246
C         41.51423        29.33486         1.06158
C         42.81159        31.57591         0.77213
C         41.50319        30.82282         0.89250
C         42.79482        33.03075         0.41370
C         41.51242        33.73717         0.07728
C         42.79430        35.99976        -0.00197
C         41.50265        35.22772        -0.02141
C         42.80884        37.49773        -0.00916
C         41.49877        38.23336         0.17290
C         42.83330        40.25141         1.13596
C         41.53293        39.53792         0.92020
C         42.82643        41.76190         1.17338
C         41.67461        42.41306         0.41161
C         43.03934        44.62419         0.29536
C         41.76818        43.83508        -0.05869
C         42.92906        46.13478         0.45144
C         41.64523        46.86042         0.14602
C         42.76496        48.88758         0.87368
C         41.39345        48.31836         0.73681
C         43.91788        24.90030         0.84052
C         45.39220        27.08023         0.58408
C         44.17054        26.33380         0.98252
C         45.23050        28.51167        -0.02280
C         44.21695        29.33328         0.95853
C         45.28171        31.47988        -0.02337
C         44.03981        30.76109         0.42052
C         45.30757        32.98968        -0.14524
C         44.03166        33.75512        -0.04653
C         45.33380        35.97559         0.19677
C         44.05014        35.23216         0.27193
C         45.38987        37.48333         0.04935
C         44.11841        38.25328         0.14548
C         45.47464        40.22665         1.17446
C         44.15657        39.55136         0.89754
C         45.50897        41.71256         1.61340
C         44.14294        42.46624         1.33059
C         45.42271        44.66978         1.46991
C         44.22790        43.91448         0.91600
C         45.27507        46.17346         1.54315
C         43.88242        46.78211         1.51069
C         43.75490        48.25679         1.24612
C         47.75304        27.15560         0.12190
C         46.69077        26.53173         0.17258
C         48.04988        28.51232        -0.39102
C         46.61458        29.27862        -0.28646
C         47.82103        31.47788         0.55713
C         46.62856        30.76968        -0.12025
C         47.89550        33.02816         0.23841
C         46.59152        33.74418         0.04097
C         47.82957        35.96500        -0.25094
C         46.54013        35.21529        -0.27790
C         47.75922        37.26376         0.47024
C         46.66859        38.07762         0.52100
C         48.03174        40.33720         0.39182
C         46.79087        39.53060         0.84009
C         47.75623        41.82009         0.07715
C         46.78124        42.48790         1.09100
C         47.93104        44.84110         0.56953
C         46.76061        43.99468         1.16223
C         47.48944        46.23924         0.49278
C         46.49220        46.77063         0.98025
C         50.49315        28.84817         0.28506
C         49.17335        29.27052         0.27840
C         50.48441        31.50857         0.23744
C         49.17519        30.75953         0.45672
C         50.47431        32.98912        -0.11135
C         49.16776        33.70751        -0.24831
C         50.42907        36.04137        -0.19394
C         49.16462        35.25126        -0.58618
C         50.38874        37.46204        -0.77763
C         49.47184        38.35921        -0.07182
C         50.07763        40.39503        -1.26052
C         49.14702        39.66084        -0.35429
C         50.14992        41.90173        -1.01202
C         49.08430        42.59390        -0.18008
C         50.07327        44.66663        -1.00613
C         49.07058        44.13917        -0.07285
C         51.67392        29.32748         0.25871
C         52.82867        31.65247        -0.29198
C         51.69551        30.69392        -0.43269
C         52.83802        32.89098        -0.36589
C         51.78230        33.78888         0.23872
C         52.75334        36.13789        -0.75334
C         51.74508        35.29673        -0.07307
C         52.71713        37.31864        -1.13635
C         51.56332        38.17101        -1.48015
C         52.43902        40.66551        -1.83973
C         51.39241        39.65288        -1.68283
C         52.39306        41.89175        -1.95093
C         51.12675        42.70790        -1.99825
C         51.05489        44.11455        -1.51176
O         50.52735        37.49525        -2.21636
O         45.43972        45.37766         2.74355
O         44.77631        35.57334         1.48755
O         40.47562        28.03363        -0.69845
O         39.67365        35.73423         1.57728
O         42.85309        36.75483        -1.25038
O         49.82547        33.07809        -1.39747
O         43.19552        42.33955         2.44489
O         47.24346        33.69450         1.35549
O         42.93832        32.59933         1.80319
O         46.67390        30.17786        -1.44575
O         34.12004        35.12898         1.14094
O         45.09279        26.85695         1.97158
O         47.34235        43.18830         2.21299
O         37.74007        36.71444        -1.14165
O         40.19671        41.34692         2.01377
O         36.21618        33.67510        -1.81046
O         35.13852        28.92107        -1.87005
O         33.63655        38.72461         2.03357
O         49.15582        44.59673         1.28733
O         35.32993        31.55932         0.95333
O         42.80399        27.79225         2.36650
O         48.93691        37.72533         1.06726
O         39.33988        42.58234        -1.43398
O         36.66125        42.49471        -1.76737
O         38.13769        45.36544        -2.13100
O         41.34271        30.21079         2.20221
O         34.39485        43.86238        -2.18927
O         33.54812        31.29747        -2.37383
O         50.29845        39.94043        -2.61059
O         42.75125        46.84276        -0.79197
O         38.90537        38.52779         1.94977
O         37.96025        32.08270        -1.21154
O         32.08208        38.42385        -1.05163
O         51.09833        35.96129         1.06992
O         44.16800        44.18472        -0.51851
O         32.09990        42.78471         1.71295
O         34.31084        41.38428        -1.06751
O         47.83455        39.93934         1.76256
O         40.30829        31.99877        -0.96962
O         44.33918        30.90575        -0.98879
O         50.30462        42.09318         0.42001
O         42.02600        42.71148        -0.95804
O         42.16216        39.53271         2.22576
O         31.69812        33.56389        -2.20939
O         41.52518        34.40519        -1.22496
O         36.14137        39.13312        -0.75904
O         37.54198        27.66649         1.83058
O         50.08717        31.16564         1.56385
O         31.97506        35.99721        -1.75123
O         41.20533        25.33614         1.90075
O         37.59786        41.48388         1.72955
O         40.67718        45.44973        -1.61770
O         44.82141        39.40489         2.19687
O         46.98961        35.85902        -1.48130
O         31.71204        40.09407         2.01443
O         44.85861        38.18716        -1.11530
O         40.73279        38.19296        -1.07474
O         44.58774        33.43545        -1.34167
O         38.80821        30.21087         1.95332
O         38.79548        33.36153         1.93580
H         39.15041        34.11133         2.46508
O         51.37953        30.52281        -1.78692
H         52.14987        30.15388        -2.26550
O         40.84280        48.17224         2.03445
H         40.83388        49.04246         2.48574
O         35.54862        29.21544         1.72190
H         36.16358        29.44288         2.45092
O         47.44278        31.35508         1.93497
H         48.20333        31.62880         2.49470
O         35.25053        40.94224         2.38137
H         34.93087        40.23886         2.98701
O         38.68557        46.63018         1.22010
H         39.27408        47.23353         1.74322
O         50.57300        42.60585        -3.27834
H         51.18382        42.98961        -3.94016
O         34.05820        34.51512        -2.46576
H         33.95566        33.79439        -3.12220
O         45.65338        41.70874         3.02588
H         45.05422        41.02122         3.39326
O         48.40076        28.40066        -1.76441
H         48.05104        29.18465        -2.24661
O         49.30525        35.30620        -2.01133
H         48.43232        35.14988        -2.43700
O         30.66664        30.75563        -2.68482
H         31.25466        30.21220        -3.24731
O         43.23483        46.52077         2.74625
H         43.91034        46.41078         3.45344
O         47.01500        41.86074        -1.16693
H         47.53544        41.44212        -1.88636
O         51.86957        33.65494         1.64849
H         52.54381        34.27095         2.00198
O         36.56824        34.71740         1.75038
H         36.30784        35.47745         2.32405
O         44.58296        28.29652        -1.26670
H         44.67135        29.11832        -1.80630
O         44.81685        29.47635         2.23101
H         44.58026        28.68644         2.77644
O         35.49086        37.19703         2.20911
H         34.68032        36.90206         2.68074
