         410
 CSIRO Nanostructure Databank - Neutral Graphene Oxide Data Set
C         27.99890        27.39059         1.07430
C         27.93036        28.76379         0.71535
C         26.69440        29.45698         0.62170
C         27.86048        31.51038        -0.00251
C         26.66507        30.79811         0.30837
C         27.87395        32.97230        -0.13175
C         26.65939        33.71978         0.11302
C         27.89540        35.81744         0.37649
C         26.64307        35.06885         0.25563
C         27.88493        37.32785         0.39740
C         26.67869        38.08625         0.05858
C         27.91376        40.21507        -0.01708
C         26.69550        39.44731        -0.03616
C         27.89794        41.66881         0.03542
C         26.69357        42.39887         0.24085
C         27.92668        44.50241         0.34544
C         26.70526        43.77124         0.36856
C         27.95256        45.89939         0.58524
C         30.43985        27.43986         0.91456
C         29.21528        26.74895         1.14564
C         30.40225        28.80718         0.58104
C         29.13706        29.46298         0.42700
C         30.32504        31.38797        -0.61826
C         29.07845        30.82150         0.01679
C         30.25918        32.90942        -0.87730
C         29.04928        33.64987        -0.42511
C         30.30673        35.90398        -0.57027
C         29.17075        35.07441        -0.03388
C         30.42063        37.34439        -0.23361
C         29.20998        38.08045         0.18613
C         30.37374        40.20230        -0.27472
C         29.13623        39.52357        -0.09812
C         30.35398        41.67472        -0.38411
C         29.11254        42.39474        -0.06466
C         30.40302        44.52190         0.21977
C         29.15006        43.80001         0.11882
C         30.38730        45.93962         0.45205
C         29.15567        46.59557         0.62760
C         32.99803        24.67786         1.23519
C         31.78326        25.32918         1.14219
C         32.92759        27.46172         0.93192
C         31.72130        26.73609         0.99934
C         32.87848        28.94032         0.94714
C         31.62006        29.60976         0.53135
C         32.78406        31.78167         0.08748
C         31.58618        30.91603         0.09557
C         32.80081        33.05113        -0.66227
C         31.53397        33.68803        -1.08471
C         32.77106        35.96727        -1.57508
C         31.48515        35.20648        -1.18220
C         32.83827        37.39952        -0.93594
C         31.61074        38.04390        -0.46114
C         32.82315        40.22237        -0.02769
C         31.57677        39.49428        -0.30217
C         32.90195        41.67597         0.00532
C         31.67724        42.44798        -0.23248
C         32.87843        44.48400         0.73285
C         31.62876        43.83556         0.19853
C         32.87161        45.94276         0.37037
C         31.66652        46.65443         0.39999
C         32.93000        48.76596         0.41664
C         31.70416        48.07396         0.36575
C         35.59030        23.32979         1.61030
C         35.48143        24.68438         1.12423
C         34.21812        25.38613         1.13267
C         35.42255        27.52321         0.72612
C         34.18664        26.79946         0.95552
C         35.41950        28.92783         0.53106
C         34.18638        29.69296         0.80196
C         35.36358        31.75345        -0.13373
C         34.14519        31.13636         0.41735
C         35.28313        33.09810        -0.57194
C         34.00434        33.76854        -0.77394
C         35.23483        35.60021        -1.73859
C         34.00499        35.09407        -1.32565
C         35.25259        37.76650        -1.55666
C         34.01326        38.16926        -0.96079
C         35.35854        40.26290        -0.36243
C         34.12814        39.46046        -0.24931
C         35.36808        41.64059        -0.05341
C         34.12608        42.34754         0.14585
C         35.37175        44.44852         0.38601
C         34.16106        43.76845         0.36057
C         35.35904        45.91416         0.77029
C         34.17511        46.62855         0.07226
C         35.44925        48.85173         0.22286
C         34.14309        48.10722         0.36422
C         35.49413        50.19322         0.89907
C         37.93271        23.12176         0.88895
C         36.76399        22.63653         1.62170
C         37.86213        24.62062         0.46113
C         36.64191        25.37756         0.75261
C         37.86919        27.49685         0.32190
C         36.64622        26.79876         0.58710
C         37.82318        28.88836         0.10453
C         36.60066        29.61238         0.15659
C         37.80041        31.70870        -0.54495
C         36.58938        31.03677        -0.15142
C         37.74785        33.07662        -0.86382
C         36.50583        33.76268        -0.88522
C         37.71688        35.92521        -1.20447
C         36.48624        35.09642        -1.36338
C         37.72312        37.42853        -1.10230
C         36.49303        38.25827        -1.16876
C         37.81385        40.27038        -0.65565
C         36.55996        39.59572        -0.67976
C         37.82262        41.66763        -0.39915
C         36.60172        42.36188        -0.10647
C         37.85126        44.48509         0.09945
C         36.60884        43.76886         0.12649
C         37.87944        45.90001         0.34710
C         36.66220        46.63781         0.50930
C         37.93198        48.73210         0.64057
C         36.68610        48.02640         0.53597
C         37.94434        50.13743         0.88412
C         36.67423        50.79915         1.13703
C         40.63552        20.53784         1.62399
C         39.43796        21.18346         1.56210
C         40.37467        23.20085         0.51427
C         39.28248        22.52326         1.03663
C         40.31262        24.59460         0.09737
C         39.11766        25.34094         0.26807
C         40.35804        27.42640        -0.01735
C         39.13225        26.76054         0.21398
C         40.37726        28.89523         0.04660
C         39.08287        29.65321         0.02318
C         40.26538        31.64292        -0.93436
C         39.08274        31.02901        -0.52513
C         40.20857        32.99846        -1.53083
C         38.92566        33.76768        -1.43673
C         40.22000        35.95351        -1.41773
C         39.00418        35.24513        -1.41947
C         40.22541        37.40804        -1.26636
C         39.02223        38.13404        -1.15300
C         40.25572        40.25186        -0.93937
C         39.02264        39.54384        -0.93263
C         40.23551        41.66930        -0.80602
C         39.05295        42.38649        -0.51229
C         40.27728        44.53910        -0.29783
C         39.05920        43.81188        -0.25583
C         40.33706        45.89505         0.09516
C         39.11921        46.59508         0.35338
C         40.40174        48.69323         0.68812
C         39.15583        48.00823         0.57680
C         40.41217        50.10249         0.88456
C         39.17730        50.82720         0.98364
C         40.41850        52.91715         1.25225
C         39.22889        52.25269         1.16064
C         43.11459        20.47230         0.91633
C         41.88195        21.21453         1.24814
C         42.75453        23.02552        -0.34337
C         41.71831        22.59061         0.62875
C         42.62685        24.49286        -0.79350
C         41.47592        25.27012        -0.32975
C         42.73948        27.33887        -0.80857
C         41.54174        26.69298        -0.39292
C         42.84081        28.78576        -0.66466
C         41.63351        29.62047        -0.30876
C         42.74691        31.61732        -1.24721
C         41.56749        31.00143        -0.83597
C         42.75259        33.03075        -1.71611
C         41.46919        33.79026        -1.74784
C         42.71240        35.95554        -1.38981
C         41.47898        35.26372        -1.52814
C         42.71732        37.39070        -1.24682
C         41.47850        38.11181        -1.20997
C         42.73883        40.23982        -1.04932
C         41.48867        39.53158        -1.08740
C         42.75625        41.65929        -1.01136
C         41.48492        42.39072        -1.06457
C         42.79443        44.53782        -0.57842
C         41.49481        43.89876        -0.81158
C         42.79426        45.87791        -0.08559
C         41.60592        46.57150         0.20979
C         42.86082        48.65541         0.78015
C         41.64372        47.97065         0.59425
C         42.89371        50.08105         0.94596
C         41.65688        50.79747         0.99349
C         42.89143        52.87991         1.33863
C         41.66502        52.21000         1.18840
C         44.15449        21.05476         0.25661
C         45.09047        22.96008        -1.11244
C         44.06307        22.35169        -0.37683
C         44.84695        24.28016        -1.64243
C         43.84020        25.14129        -1.26847
C         45.24527        27.34246        -1.22919
C         43.88945        26.64353        -1.53857
C         45.24908        28.75890        -1.10615
C         44.03137        29.50200        -1.12727
C         45.26361        31.60433        -1.18846
C         44.01638        30.90471        -1.20470
C         45.31563        33.06174        -1.40787
C         44.02966        33.81711        -1.66127
C         45.19664        35.94728        -1.17233
C         43.97877        35.26449        -1.38654
C         45.19637        37.37891        -1.09854
C         43.95610        38.09328        -1.15510
C         45.20993        40.24268        -1.04867
C         43.97068        39.52331        -1.08051
C         45.21666        41.66575        -1.00072
C         43.97195        42.38005        -0.96995
C         45.25258        44.52846        -0.91228
C         43.97168        43.80697        -0.80798
C         45.29637        45.97256        -0.44112
C         44.08685        46.49541         0.23711
C         45.40729        48.65447         0.60999
C         44.13582        47.92236         0.74755
C         45.45003        50.05501         1.17306
C         44.12031        50.78738         1.09518
C         44.09158        52.17118         1.30643
C         47.62067        23.08887        -1.23003
C         46.43768        22.40179        -1.22314
C         47.76147        24.53333        -1.08777
C         46.72888        25.34492        -1.54075
C         47.66735        27.37438        -0.62492
C         46.50894        26.69754        -1.13680
C         47.62046        28.77438        -0.48979
C         46.45473        29.48434        -0.85017
C         47.66073        31.65949        -0.57830
C         46.44732        30.92217        -0.86436
C         47.66224        33.09039        -0.60812
C         46.48853        33.81471        -0.95104
C         47.64603        35.94658        -0.66538
C         46.44805        35.22914        -0.95622
C         47.65251        37.38185        -0.74608
C         46.42563        38.09283        -0.97624
C         47.69116        40.22775        -1.00128
C         46.44618        39.51814        -1.00892
C         47.68291        41.64201        -1.03987
C         46.46945        42.37367        -0.97798
C         47.74902        44.51584        -0.82569
C         46.52035        43.79805        -0.93378
C         47.76618        45.94019        -0.51286
C         46.59132        46.61721        -0.18752
C         47.81550        48.74736         0.08013
C         46.57969        48.00781         0.21319
C         47.73965        50.18964         0.19582
C         46.62133        50.82214         0.61711
C         50.09362        24.49555        -0.18617
C         48.90660        25.20004        -0.51402
C         50.07815        27.30138        -0.00552
C         48.88662        26.62675        -0.37119
C         50.06887        28.75422         0.27101
C         48.76599        29.52269         0.04214
C         50.04549        31.65675         0.07823
C         48.83168        30.97402        -0.17508
C         50.06404        33.08592         0.00603
C         48.86233        33.79938        -0.30223
C         50.05695        35.91873        -0.06651
C         48.85039        35.22474        -0.35362
C         50.02434        37.39669        -0.01974
C         48.85128        38.10699        -0.55663
C         50.18239        40.20133        -0.75055
C         48.92879        39.50566        -0.79622
C         50.24560        41.58760        -1.22022
C         48.93040        42.38776        -1.26123
C         50.23653        44.52803        -0.91931
C         48.97701        43.83311        -0.99494
C         50.23449        45.97567        -0.72915
C         49.02556        46.65011        -0.48446
C         50.25572        48.78400        -0.31852
C         49.00924        48.07637        -0.24501
C         51.24856        25.16453         0.16108
C         52.49479        27.30721         0.51155
C         51.28582        26.58662         0.21531
C         52.59862        28.74673         0.06633
C         51.31070        29.52387         0.24089
C         52.51705        31.67955         0.36355
C         51.28575        30.92485         0.26481
C         52.51584        33.07664         0.44535
C         51.27423        33.80127         0.24287
C         52.52147        35.95331         0.35703
C         51.23762        35.21963         0.21965
C         52.57668        37.43485         0.27028
C         51.28417        38.17375         0.19237
C         52.58780        40.24372        -0.06338
C         51.36254        39.58503        -0.23638
C         52.71103        41.64854        -0.48240
C         51.51211        42.37022        -1.06425
C         52.77857        44.55817        -1.07134
C         51.44985        43.84007        -0.99826
C         52.71534        46.04290        -0.81812
C         51.48082        46.70597        -0.72333
C         51.43105        48.12961        -0.53857
C         54.76615        27.39270         1.41239
C         53.61301        26.68664         1.09014
C         54.83483        28.81048         1.23201
C         53.75679        29.48210         0.67016
C         55.04066        31.68766         0.93913
C         53.78926        30.93920         0.47690
C         54.91229        33.14642         1.16145
C         53.72395        33.78712         0.84055
C         54.86006        36.04507         1.45191
C         53.63329        35.24506         1.05192
C         54.89895        37.52201         1.20749
C         53.76226        38.20045         0.73049
C         54.95015        40.34779         0.80821
C         53.75734        39.60670         0.52259
C         55.00509        41.78874         0.61716
C         53.77274        42.46821         0.17221
C         55.09625        44.63826         0.01353
C         53.80160        43.93943        -0.11409
C         55.13228        46.01694        -0.36095
C         53.97526        46.69965        -0.68493
C         55.96829        29.55206         1.75715
C         56.05530        30.89944         1.66193
C         56.08712        33.90980         1.51096
C         56.10048        35.26835         1.57207
C         56.04999        38.27478         1.50773
C         56.07201        39.64819         1.30297
C         56.13489        42.56386         0.83400
C         56.18623        43.94940         0.52726
O         54.84866        31.33962        -0.47479
O         33.58990        29.46932         2.11905
O         35.24679        36.76218        -2.51366
O         42.61749        29.33852         0.72810
O         52.89880        36.60979        -0.91539
O         42.17829        22.45628         2.00450
O         44.24921        46.75940         1.66510
O         53.23331        43.44676         1.14144
O         49.60275        41.90527        -2.48393
O         33.44880        31.95116         1.39657
O         31.06633        42.18323        -1.55599
O         37.64902        23.52199        -0.48442
O         30.38770        35.66479        -2.03516
O         28.65345        37.81732         1.52949
O         52.60009        41.85124        -1.93828
O         39.33158        33.10782        -2.70067
O         33.53816        39.53692         1.07439
O         30.77875        33.15252        -2.23799
O         50.40384        37.92822         1.33525
O         28.83443        35.28269         1.36426
O         41.36530        43.35292        -2.16880
O         44.91214        33.46023        -2.77694
O         49.17032        29.10804         1.38648
O         42.09176        33.30859        -3.00049
O         45.13155        45.66436        -1.85700
O         53.82602        35.66854         2.43965
O         39.83396        29.48354         1.28782
O         37.66450        36.59002         0.14526
O         42.20952        23.35184        -1.64630
O         45.84612        24.80661        -2.48256
O         35.14827        45.99517         2.20162
H         34.38755        45.40068         2.43124
O         45.70526        49.89986         2.61771
H         46.50111        49.33532         2.71703
O         30.36430        30.72167        -1.91790
H         30.65823        31.39964        -2.57488
O         35.55332        49.10160        -1.22767
H         35.44797        48.21948        -1.66084
O         53.29836        44.40549        -2.42315
H         53.19085        43.45292        -2.66738
O         43.65877        26.83656        -2.96775
H         44.31437        26.27918        -3.44207
O         32.70712        36.18241        -2.99956
H         31.75533        36.26408        -3.23887
O         52.86033        28.68899        -1.39610
H         53.36742        29.49442        -1.63888
O         32.82940        44.40549         2.22918
H         32.00877        44.86462         2.51223
O         34.46375        46.51291        -1.37929
H         33.63095        46.71767        -1.85684
H         27.07010        26.84288         1.28891
H         25.75886        28.91730         0.82739
H         25.69410        31.30929         0.27639
H         25.70087        33.18472         0.10356
H         25.68402        35.60179         0.31397
H         25.74061        37.54589        -0.13110
H         25.74645        39.96798        -0.22499
H         25.73602        41.86572         0.31067
H         25.76391        44.31520         0.53306
H         27.00515        46.43259         0.74734
H         29.23269        25.68679         1.42283
H         29.13024        47.67790         0.81492
H         33.00843        23.58514         1.34374
H         30.86244        24.73354         1.18538
H         32.89945        49.86256         0.49157
H         30.77273        48.65502         0.35786
H         34.72177        22.89281         2.12306
H         34.55686        50.71567         1.13716
H         36.83405        21.69825         2.19028
H         36.67863        51.80320         1.58439
H         40.67492        19.47565         1.90739
H         38.53069        20.63629         1.85581
H         40.43678        54.00861         1.38491
H         38.29322        52.82543         1.20798
H         43.20474        19.43365         1.26787
H         42.89940        53.96646         1.50534
H         45.07856        20.47688         0.10702
H         45.02821        52.72112         1.46906
H         48.54258        22.48679        -1.21310
H         46.50852        21.30230        -1.20076
H         48.59968        50.79511        -0.12297
H         46.61584        51.92035         0.65905
H         50.10807        23.39940        -0.25536
H         50.27523        49.87095        -0.16695
H         52.16241        24.58698         0.35564
H         52.36251        48.70968        -0.56661
H         55.61588        26.87285         1.87647
H         53.56840        25.61704         1.34085
H         56.08148        46.56509        -0.27037
H         54.03461        47.79242        -0.79100
H         56.74240        28.98871         2.29876
H         56.87497        31.42821         2.16921
H         57.03809        33.36983         1.62236
H         57.06016        35.79176         1.68435
H         56.94598        37.78233         1.90861
H         56.99248        40.19600         1.54389
H         57.05827        42.09726         1.20408
H         57.14032        44.47977         0.66169
