         232
 CSIRO Nanostructure Databank - Neutral Graphene Oxide Data Set
C        -11.14894         0.72199        -0.04955
C         -9.92217         1.50490         0.03012
C         -8.65950         0.78767         0.11408
C         -7.45383         1.50894         0.39560
C         -6.24614         0.80217         0.52107
C         -4.98049         1.52435         0.73846
C         -3.68709         0.83429         0.56220
C         -2.52859         1.55071         0.42650
C         -1.22678         0.82556         0.75840
C          0.04175         1.59464         0.36251
C          1.27583         0.85271         0.07303
C          2.43574         1.49592        -0.32734
C          3.73338         0.80556        -0.28762
C          4.91731         1.41473        -0.59901
C          6.21919         0.71629        -0.25972
C          7.49108         1.38336        -0.69595
C          8.67027         0.67573        -0.61029
C          9.85090         1.36434        -0.13634
C         10.94011         0.54213         0.34680
C         -9.95271         2.87727         0.08664
C         -8.75192         3.66503         0.22553
C         -7.48243         2.96739         0.41466
C         -6.30248         3.68761         0.42322
C         -4.99751         3.03051         0.60223
C         -3.78043         3.70830         0.13097
C         -2.54467         2.98370         0.09523
C         -1.36505         3.62699        -0.32191
C         -0.03041         3.02037        -0.14459
C          1.17747         3.57984        -0.80456
C          2.37562         2.89262        -0.74317
C          3.64641         3.55459        -1.16954
C          4.95170         2.80480        -1.11321
C          6.23946         3.59987        -0.99266
C          7.58652         2.86648        -0.93024
C          8.63701         3.50628        -0.03944
C          9.77943         2.71875         0.22740
C         -8.80580         5.04307         0.12295
C         -7.62676         5.88125         0.32314
C         -6.28941         5.15603         0.41706
C         -5.07104         5.81818        -0.09097
C         -3.89869         5.07971        -0.25953
C         -2.73044         5.72606        -0.90068
C         -1.43036         4.96202        -0.92624
C         -0.15817         5.75529        -1.08311
C          1.13705         5.02276        -1.19253
C          2.41738         5.80679        -1.06055
C          3.70734         5.05845        -1.01698
C          4.83976         5.62973        -0.26380
C          6.14866         5.02802        -0.42291
C          7.30776         5.56893         0.31532
C          8.50124         4.82704         0.41529
C         -7.60076         7.32729        -0.00913
C         -6.43563         7.96295        -0.30466
C         -5.21359         7.18351        -0.74715
C         -3.92694         7.95775        -0.62456
C         -2.69344         7.23342        -0.93784
C         -1.38047         7.95309        -0.70516
C         -0.18639         7.08931        -0.34621
C          1.09112         7.87906        -0.29505
C          2.36961         7.22018        -0.53211
C          3.56559         7.75020         0.24464
C          4.62080         6.75362         0.70067
C          5.89848         7.44916         1.10314
C          7.12933         6.80636         0.99345
C         -6.33921         9.41183        -0.25380
C         -5.14134        10.04890        -0.21342
C         -3.88261         9.32174        -0.32872
C         -2.64661         9.98638        -0.07758
C         -1.40972         9.31487        -0.12198
C         -0.21311         9.84458         0.39735
C          1.04206         9.15310         0.30397
C          2.22393         9.70179         0.93035
C          3.39702         8.97606         1.04916
C          4.55745         9.41616         1.77820
C          5.75189         8.72666         1.73638
C        -11.12584        -0.60695        -0.27450
C         -9.83737        -1.30901        -0.61781
C         -8.62759        -0.60055        -0.06404
C         -7.42513        -1.32830         0.13569
C         -6.20776        -0.62148         0.40196
C         -4.97966        -1.33498         0.49158
C         -3.68455        -0.64959         0.86908
C         -2.47928        -1.35795         0.28727
C         -1.22934        -0.61750         0.27653
C         -0.04808        -1.27537         0.10109
C          1.25045        -0.59822         0.47233
C          2.47803        -1.32106        -0.00488
C          3.75858        -0.59978         0.28588
C          4.91596        -1.44604        -0.23257
C          6.17766        -0.75999        -0.62660
C          7.44994        -1.57369        -0.74988
C          8.71500        -0.77038        -1.10458
C         10.07401        -1.50917        -0.82441
C         10.96320        -0.79965         0.17528
C         -9.84768        -2.78141        -0.34387
C         -8.67944        -3.49283        -0.06533
C         -7.42770        -2.75911         0.15262
C         -6.21532        -3.43828         0.31368
C         -4.97491        -2.73264         0.36930
C         -3.72901        -3.47291         0.26992
C         -2.51320        -2.71943         0.06552
C         -1.34145        -3.43439        -0.57494
C         -0.01896        -2.69288        -0.34440
C          1.25891        -3.46516        -0.16980
C          2.46480        -2.74657         0.35043
C          3.71880        -3.50950         0.63092
C          4.99734        -2.85275         0.23753
C          6.17984        -3.54934         0.30879
C          7.45376        -3.02015        -0.30101
C          8.79649        -3.72374        -0.29878
C          9.93391        -2.98014        -0.51177
C         -8.67866        -4.90722        -0.08982
C         -7.53953        -5.67859         0.36169
C         -6.18940        -4.88454         0.55613
C         -4.93163        -5.62632         0.42545
C         -3.70109        -4.87740         0.28034
C         -2.42445        -5.57858         0.15658
C         -1.27091        -4.91573        -0.19494
C         -0.01293        -5.66990        -0.47368
C          1.30423        -4.95886        -0.34035
C          2.54806        -5.72829         0.01792
C          3.64753        -5.03761         0.80226
C          4.99228        -5.71373         0.66523
C          6.11334        -4.93146         0.77747
C          7.91843        -6.02801         0.07206
C          8.88626        -5.15218        -0.47200
C         -7.41836        -7.11709         0.13099
C         -6.21087        -7.76281         0.28629
C         -4.97369        -7.02058         0.41342
C         -3.72133        -7.78431         0.52896
C         -2.39831        -7.03938         0.40940
C         -1.21514        -7.84288         0.11826
C          0.02462        -7.17808        -0.28773
C          1.29788        -7.86367         0.06410
C          2.47395        -7.19203         0.24922
C          3.67720        -7.93998         0.82445
C          5.03103        -7.19677         0.73999
C          6.29397        -7.94695         0.23387
C          7.44540        -7.24959        -0.37054
C         -6.15783        -9.22632         0.33674
C         -5.00287        -9.92082         0.33226
C         -3.70420        -9.21915         0.03361
C         -2.44407        -9.93336         0.42964
C         -1.23050        -9.25555         0.34268
C          0.03510        -9.96749         0.35614
C          1.23894        -9.31564         0.24837
C          2.50277       -10.01953         0.14776
C          3.69329        -9.35508         0.25567
C          4.93109       -10.00663        -0.11289
C          6.11273        -9.35491        -0.19363
O          7.22244        -2.64564        -1.71594
O          4.03586         6.16927         1.93757
H          4.75887         5.73135         2.43515
O         -1.21714         0.74602         2.21520
H         -0.84560         1.59834         2.54114
O          2.95965        -2.92697         1.77079
O          5.20729        -1.14702        -1.63600
O         -6.93310         5.70685         1.62544
O         -7.01911        -5.27595         1.67939
O          3.41199        -8.09717         2.24615
H          4.27963        -8.27118         2.67543
O         -3.57283        -0.77133         2.31902
H         -2.75745        -0.27427         2.58413
O          3.95873        -0.45405         1.75222
H          3.74178        -1.35430         2.12541
O         -0.06670        -6.55484        -1.63269
O          3.26163        -5.30889         2.17647
H          3.83152        -4.78463         2.77655
O          3.25857         5.73372        -2.25317
O          1.25114        -0.59268         1.94285
H          2.11217        -0.20009         2.22217
O         -4.92219         2.38670         1.93055
O          6.35063         4.71435        -1.87593
O         -3.65127        -9.08558        -1.43499
H         -3.63247        -9.98732        -1.81922
O          0.26253         2.71436         1.29161
O         -1.90331         7.80241        -2.04385
O          2.31535        -5.30927        -1.35060
O         -2.30204         5.05375        -2.11839
O          3.42091         8.02778        -1.16389
O          7.30894        -5.48829         1.22859
O          8.14387         2.97404        -2.27826
H          7.86136         3.84566        -2.64192
O         -2.97591        -7.47893         1.72295
O          6.34824         0.76951         1.20796
H          5.51268         0.40318         1.60696
O         -0.43039         6.64568         1.04073
H         -0.34250         7.42646         1.62955
O          4.24940         3.01820        -2.38172
O          8.61129        -0.59759        -2.54583
H          8.10617        -1.36598        -2.89944
O         -9.70500        -1.20689        -2.09530
H        -10.52328        -1.57835        -2.48825
O         -5.43199         6.91464        -2.17513
H         -4.57193         6.65735        -2.57376
O         -1.59997        -3.40622        -2.00271
H         -0.72698        -3.50692        -2.45010
O          0.42409         5.53025        -2.38269
O         10.86573        -1.48710        -2.04383
H         10.31899        -1.00488        -2.71628
O          0.89734        -2.86716        -1.47388
O          6.01979        -7.74013         1.66343
H         11.78207        -1.38984         0.61350
H         11.71241         1.03000         0.96194
H         10.61301         3.16289         0.79328
H          9.33948         5.27456         0.97268
H          8.01474         7.27796         1.44860
H          6.64186         9.17289         2.20612
H          4.50624        10.37529         2.31464
H          2.13416        10.67512         1.43696
H         -0.22966        10.84040         0.86485
H         -2.67397        11.03420         0.25729
H         -5.09782        11.14050        -0.08822
H         -7.27175         9.98363        -0.13300
H         -8.50109         7.91903         0.22425
H         -9.75113         5.52657        -0.16678
H        -10.91646         3.40460         0.01991
H        -12.10436         1.24635         0.10605
H        -12.06371        -1.18189        -0.32492
H        -10.77723        -3.33849        -0.54355
H         -9.54828        -5.43731        -0.50654
H         -8.32424        -7.69354        -0.11018
H         -7.11663        -9.75590         0.44600
H         -5.00945       -11.01902         0.40972
H         -2.45317       -11.02735         0.55121
H          0.01382       -11.06226         0.46167
H          2.48799       -11.08869        -0.11617
H          4.86861       -11.05797        -0.43409
H          6.99880        -9.88175        -0.57822
H          7.86918        -7.68858        -1.28501
H          9.72902        -5.54893        -1.05781
H         10.87825        -3.53813        -0.61777
