         404
 CSIRO Nanostructure Databank - Neutral Graphene Oxide Data Set
C          1.29017         3.34512         0.52126
C          0.09059         4.01744         0.33560
C          1.25086         6.17391         0.24596
C          0.06475         5.40970         0.18992
C          1.24744         7.61060         0.05612
C          0.01331         8.35932         0.04715
C          1.16450        10.49994        -0.38333
C         -0.03090         9.71569        -0.04655
C          1.22424        11.96549        -0.19125
C          0.04701        12.68029         0.08154
C          1.24022        14.78636        -0.08996
C          0.05151        14.06470         0.14030
C          1.20782        16.25518        -0.10927
C         -0.00983        16.95872        -0.25982
C          1.13261        19.11053        -0.11028
C         -0.04317        18.34378        -0.28415
C          1.12454        20.55598        -0.12487
C         -0.08838        21.28662        -0.24856
C          1.11059        23.41007        -0.17121
C         -0.09414        22.66203        -0.27346
C          1.09193        24.85448        -0.18410
C         -0.10184        25.59445        -0.38997
C          1.08862        27.72003        -0.19747
C         -0.09935        26.97318        -0.42324
C          1.08722        29.18695        -0.28446
C         -0.11009        29.92039        -0.50613
C          1.08715        32.05195        -0.53226
C         -0.11477        31.30021        -0.59216
C          1.11016        33.50008        -0.54962
C         -0.08298        34.27325        -0.57492
C          1.17787        36.36125        -0.49140
C         -0.05052        35.65529        -0.54661
C          1.21808        37.79051        -0.46884
C          3.74910         3.40146         0.69252
C          2.51243         4.06787         0.57716
C          3.71150         6.23335         0.56081
C          2.49227         5.49862         0.45708
C          3.68838         7.64535         0.35248
C          2.46950         8.30564         0.02311
C          3.72706        10.52579        -0.14627
C          2.50052         9.73405        -0.33987
C          3.71237        11.90657        -0.33288
C          2.46319        12.66210        -0.32253
C          3.68034        14.92159        -0.61457
C          2.45248        14.08804        -0.27515
C          3.67270        16.29991         0.02183
C          2.40043        16.98957         0.03513
C          3.56741        19.15323         0.28579
C          2.36628        18.42217         0.09394
C          3.58519        20.55704         0.14636
C          2.34457        21.27424        -0.02834
C          3.57763        23.43883         0.04496
C          2.34115        22.70586        -0.04943
C          3.53777        24.83863         0.10325
C          2.30520        25.57285         0.00785
C          3.48600        27.75901         0.44455
C          2.27872        27.00521         0.04707
C          3.52789        29.25812         0.25218
C          2.28980        29.91844        -0.21382
C          3.56605        32.01814        -0.43441
C          2.30493        31.32710        -0.39404
C          3.56858        33.42398        -0.52511
C          2.36315        34.17870        -0.50417
C          3.62164        36.34394        -0.43401
C          2.40303        35.62626        -0.46747
C          3.65858        37.76849        -0.47187
C          2.40903        38.47323        -0.46191
C          6.20179         3.44448         0.65893
C          4.96713         4.11757         0.73719
C          6.17447         6.28149         0.95983
C          4.95729         5.55840         0.76567
C          6.05866         7.73630         1.02695
C          4.88534         8.39899         0.54254
C          6.07847        10.53809         0.57657
C          4.90909         9.81421         0.31038
C          6.29766        11.88063        -0.06972
C          5.00642        12.64950        -0.39532
C          6.17442        14.91011         0.09460
C          5.00136        14.15789        -0.42835
C          6.09537        16.24877         0.38813
C          4.83837        16.97229         0.30952
C          6.06158        19.16081         0.51910
C          4.77859        18.41435         0.79697
C          6.05367        20.50697         0.22006
C          4.82892        21.26688         0.12691
C          6.06544        23.39548         0.03607
C          4.84811        22.70558         0.04934
C          6.09736        24.87219         0.07323
C          4.80071        25.60710         0.12665
C          6.08423        27.79617         0.64399
C          4.78892        27.02708         0.59996
C          6.08129        29.22444         0.20556
C          4.83666        29.92549         0.02939
C          6.04033        31.91272        -0.83297
C          4.79961        31.26519        -0.38081
C          6.05308        33.39743        -1.02979
C          4.86735        34.12942        -0.48730
C          6.12391        36.35878        -0.74919
C          4.90062        35.62790        -0.40791
C          6.13846        37.76765        -0.68105
C          4.89704        38.45184        -0.50662
C          8.59555         3.48201         0.20559
C          7.41523         4.16357         0.59673
C          8.73094         6.21484         0.87355
C          7.42550         5.58023         0.88250
C          8.97406         7.47390         1.46267
C          7.06043         8.56303         1.57068
C          8.33569        10.71846         1.59462
C          7.14210         9.94853         1.30019
C          8.57263        11.98148         1.08429
C          7.31295        12.69209         0.71360
C          8.63569        14.84436         0.80547
C          7.33053        14.16457         0.65568
C          8.63463        16.24206         0.76562
C          7.33028        16.94876         0.83800
C          8.62760        19.13304         0.55620
C          7.33340        18.45539         0.79008
C          8.61967        20.49378         0.21072
C          7.34050        21.17053        -0.08317
C          8.63883        23.37020        -0.05219
C          7.34002        22.68626        -0.18507
C          8.63105        24.81184         0.29773
C          7.35273        25.53723         0.55792
C          8.50774        27.66467        -0.19136
C          7.44341        27.08101         0.73252
C          8.56794        29.16184        -0.05245
C          7.31711        29.84508        -0.08272
C          8.61533        31.99903        -0.52859
C          7.36196        31.21189        -0.63660
C          8.62814        33.41990        -0.84720
C          7.35212        34.12220        -1.18966
C          8.62026        36.39467        -1.23019
C          7.32613        35.63138        -1.15707
C          8.62554        37.82280        -0.82710
C          7.39424        38.47264        -0.70204
C         10.95535         3.52117        -0.56051
C          9.80566         4.16598        -0.04629
C         11.07905         6.27739         0.07134
C          9.86336         5.56453         0.28415
C         11.16135         7.66435         0.39910
C         10.11507         8.25638         1.15564
C         11.18266        10.48959         0.94152
C         10.21895         9.63531         1.50113
C         11.08945        11.94501         0.96667
C          9.85274        12.65488         1.04819
C         11.07940        14.82180         0.87363
C          9.85013        14.09834         0.89888
C         11.07930        16.25360         0.81367
C          9.85409        16.97337         0.78231
C         11.08355        19.11711         0.48339
C          9.85040        18.41529         0.64290
C         11.06523        20.51076         0.22013
C          9.84046        21.20819         0.07542
C         11.10799        23.39510        -0.15081
C          9.81764        22.65779        -0.05977
C         11.12253        24.89003        -0.06844
C          9.85849        25.61225         0.12751
C         11.07084        27.73330         0.05839
C          9.83650        26.97816         0.02946
C         11.04546        29.15172         0.03619
C          9.78715        29.85841        -0.09419
C         11.01372        32.05345         0.10688
C          9.77711        31.30755        -0.18657
C         11.01079        33.55741        -0.18875
C          9.79973        34.15556        -0.77068
C         11.15965        36.34808        -0.95416
C          9.88749        35.59063        -1.17230
C         11.11587        37.81852        -0.71307
C          9.87040        38.48366        -0.65716
C         13.34645         3.57607        -1.21351
C         12.17318         4.21987        -0.76160
C         13.43604         6.36270        -0.65298
C         12.22591         5.62606        -0.45844
C         13.46938         7.78314        -0.43334
C         12.31594         8.43720         0.09616
C         13.49793        10.59002         0.07666
C         12.31898         9.84203         0.34276
C         13.51330        11.99180         0.36833
C         12.30541        12.67655         0.72647
C         13.55938        14.80832         0.75458
C         12.31621        14.10084         0.80220
C         13.56036        16.26107         0.84544
C         12.32471        16.97323         0.79308
C         13.57473        19.07568         0.63266
C         12.33513        18.39168         0.63689
C         13.63811        20.49865         0.26311
C         12.34330        21.23726         0.02612
C         13.56175        23.40314         0.31352
C         12.37503        22.70325         0.12302
C         13.58691        24.86655         0.37357
C         12.36799        25.60901         0.24060
C         13.51158        27.77851         0.53233
C         12.29372        27.00998         0.26868
C         13.49900        29.21148         0.23683
C         12.29172        29.89177         0.11464
C         13.50366        32.04906         0.27403
C         12.31467        31.34215         0.13464
C         13.48473        33.53609         0.27642
C         12.30844        34.25048        -0.26702
C         13.58803        36.35574        -0.43059
C         12.37690        35.62083        -0.51392
C         13.58564        37.78309        -0.44071
C         12.32990        38.47958        -0.50095
C         15.78984         3.58235        -1.50112
C         14.59368         4.26034        -1.26874
C         15.83631         6.42613        -1.21049
C         14.61946         5.69029        -1.02296
C         15.83771         7.85361        -1.13374
C         14.64590         8.52718        -0.69991
C         15.84532        10.68777        -0.64834
C         14.65595         9.93712        -0.43341
C         15.91466        12.03199        -0.25386
C         14.73772        12.70460         0.24881
C         16.05899        14.79865         0.52227
C         14.75636        14.09529         0.54845
C         16.06594        16.27043         0.81065
C         14.77372        16.97911         0.91249
C         16.05247        19.13481         0.81219
C         14.79626        18.39464         0.83428
C         16.07429        20.55113         0.79069
C         14.83998        21.28557         0.59716
C         16.00928        23.43174         0.90152
C         14.79155        22.67120         0.57074
C         16.05875        24.87307         0.64048
C         14.81573        25.55257         0.51558
C         16.09226        27.73362         0.49059
C         14.82541        27.01824         0.63461
C         16.10095        29.14268         0.16250
C         14.77385        29.90873         0.02774
C         16.00346        32.03823         0.14261
C         14.78920        31.37551         0.18905
C         16.06383        33.49351         0.38871
C         14.78325        34.27508         0.29461
C         16.10644        36.39006        -0.09537
C         14.87845        35.58994        -0.45999
C         16.05799        37.82338        -0.12234
C         14.80435        38.48587        -0.30480
C         18.24741         3.59843        -1.95228
C         17.10233         4.24608        -1.23004
C         18.22950         6.45834        -1.74011
C         17.04644         5.73874        -1.45842
C         18.21426         7.89601        -1.76923
C         17.03069         8.57974        -1.44060
C         18.30922        10.84098        -1.40049
C         16.98928        10.05879        -1.33719
C         18.37733        12.09937        -0.64009
C         17.20510        12.69299        -0.22348
C         18.43911        14.21759         1.17327
C         17.27441        13.93247         0.54804
C         18.49085        16.44053         1.48932
C         17.28301        17.04298         1.15464
C         18.55429        19.11879         0.87939
C         17.29469        18.44137         0.91802
C         18.55732        20.54396         0.78982
C         17.32289        21.23121         0.83658
C         18.58000        23.43085         0.73666
C         17.33891        22.68663         1.01189
C         18.53956        24.83415         0.61798
C         17.30427        25.54022         0.67388
C         18.65830        27.79937         0.56640
C         17.32149        27.01945         0.74892
C         18.59029        29.24451         0.22215
C         17.37120        29.89696         0.18124
C         18.62495        32.12115        -0.17137
C         17.27324        31.33023        -0.13691
C         18.62869        33.56576         0.07131
C         17.34544        34.25410         0.28758
C         18.53820        36.43516         0.25107
C         17.30803        35.72618         0.11618
C         18.49560        37.86622         0.24580
C         17.25848        38.53421         0.07492
C         19.37206         4.31200        -2.23195
C         20.67494         6.42867        -2.11838
C         19.43760         5.73047        -2.01782
C         20.72651         7.79197        -2.04688
C         19.49731         8.60189        -2.02211
C         20.83884        10.71371        -1.24153
C         19.57778        10.10853        -1.73162
C         20.89144        11.90954        -0.63457
C         19.70757        12.83373        -0.46985
C         20.87867        14.69850         0.86225
C         19.78495        13.62246         0.87344
C         20.87862        16.05033         1.03232
C         19.75328        16.97823         1.16484
C         21.00032        19.12421         0.72110
C         19.78618        18.38131         0.89521
C         21.00616        20.49658         0.65679
C         19.80308        21.27314         0.72302
C         21.03667        23.47129         0.69550
C         19.80651        22.69438         0.66616
C         21.03582        24.81307         0.52827
C         19.78668        25.52332         0.07365
C         20.95368        27.74635        -0.23789
C         19.84208        27.03632         0.18857
C         20.99999        29.15706        -0.20373
C         19.84757        29.93846         0.00585
C         21.05233        32.13411         0.19242
C         19.87383        31.37485         0.01298
C         21.03944        33.52056         0.25895
C         19.81917        34.26724         0.24241
C         20.94758        36.49281         0.54144
C         19.78527        35.73766         0.37193
C         20.90426        37.90279         0.57788
C         19.71360        38.58485         0.42136
O         17.88936        31.73705        -1.39713
O         10.81299        33.02437         1.18155
O          1.82651        10.04176        -1.60297
O         17.37862        10.82887        -2.52443
O          7.31410        21.82723        -1.39032
O         14.00023        34.22638         1.50247
O         16.17679        15.75479        -0.60437
O          3.28373        28.66409         1.57597
O          7.99526        24.87656         1.67637
O         13.14192        20.73324        -1.10799
O          5.38018        27.38416         1.88109
O          6.69344        31.23536        -1.95172
O         15.43877        29.40377        -1.18674
O         10.76506        35.90306        -2.31001
O          5.55463        25.49995        -1.14710
O         18.45917        15.20974         2.15875
O          5.13092        34.75378         0.81565
O          9.30946        10.14410         2.43489
O         19.56253         9.62298        -3.09714
O          6.81332        13.43452         1.87513
O         18.11557        27.51112         1.89771
O         14.10653        27.49199         1.86051
O         11.17839        24.20698        -1.39323
O          6.54816        33.71899        -2.35796
O         16.79812        33.83108         1.62353
O          7.24068        17.72098         2.09039
O          5.24328        13.37500        -1.66586
O          7.85223        36.16437        -2.44283
O         16.59762        23.10390         2.20996
O          8.04283         7.97005         2.38386
O         19.78441        13.83333        -1.51558
H         19.56185        13.40494        -2.36895
O         19.70741        25.29430        -1.38534
H         19.79494        24.32854        -1.53589
O         15.07660        35.16517        -1.85718
H         15.04702        35.96540        -2.42362
O         17.37752         4.06092         0.22821
H         18.24532         4.48095         0.40973
O          8.09171        27.37745        -1.55046
H          8.72973        27.78459        -2.17277
O          6.95037        11.54583        -1.32684
H          6.59038        12.15929        -2.01088
O          3.55851        15.22564        -2.03594
H          3.92540        14.44923        -2.52014
O          7.94396        27.35264         2.04826
H          7.23916        27.11198         2.68966
O         20.14230        12.67026         1.90479
H         20.11190        13.13841         2.76562
O          4.61422        18.35911         2.25675
H          5.47729        18.03376         2.61698
H          1.30763         2.25026         0.61735
H         -0.85137         3.45336         0.28627
H         -0.90163         5.90014         0.01364
H         -0.92536         7.82363         0.24492
H         -0.98964        10.22831         0.11174
H         -0.90296        12.14823         0.22046
H         -0.88917        14.59141         0.34617
H         -0.94927        16.40903        -0.40629
H         -1.00927        18.84020        -0.44507
H         -1.04621        20.75482        -0.31884
H         -1.05738        23.18080        -0.36202
H         -1.05327        25.07152        -0.55239
H         -1.04726        27.49165        -0.61708
H         -1.07213        29.39515        -0.57072
H         -1.07755        31.81386        -0.71709
H         -1.05807        33.76904        -0.61095
H         -0.99150        36.22405        -0.56624
H          0.26670        38.34247        -0.47095
H          3.77254         2.30182         0.70917
H          2.41885        39.57268        -0.46327
H          6.21485         2.35196         0.53082
H          4.89894        39.55099        -0.46744
H          8.53681         2.40168         0.00552
H          7.38010        39.55602        -0.51095
H         10.90976         2.44608        -0.78784
H          9.86337        39.56196        -0.43670
H         13.32054         2.49697        -1.42631
H         12.32898        39.57128        -0.36307
H         15.77402         2.50467        -1.72382
H         14.78533        39.58568        -0.29749
H         18.21559         2.51357        -2.13058
H         17.23939        39.63433         0.08295
H         20.26010         3.81072        -2.64646
H         21.60010         5.84977        -2.25477
H         21.68654         8.30767        -2.18205
H         21.77103        10.14941        -1.39260
H         21.86915        12.29632        -0.30912
H         21.87992        14.25234         0.73015
H         21.87121        16.52749         0.96534
H         21.95662        18.58385         0.68134
H         21.97169        21.01129         0.55529
H         21.97964        22.95960         0.93569
H         21.97608        25.37799         0.60712
H         21.85529        27.20304        -0.55549
H         21.95294        29.65271        -0.43490
H         22.01471        31.61205         0.29396
H         21.99517        34.04454         0.39354
H         21.92284        35.99795         0.64430
H         21.84083        38.46072         0.71757
H         19.69437        39.68401         0.43200
