         324
 CSIRO Nanostructure Databank - Neutral Graphene Oxide Data Set
C          1.55853         2.22329        -2.26408
C          1.45109         3.51511        -1.71118
C          2.79146         1.61677        -2.42909
C          2.58866         4.23678        -1.34537
C          1.30617         5.92867        -0.04848
C          1.27407         7.07898         0.72715
C          2.51163         5.53633        -0.65694
C          2.41141         7.88784         0.83154
C          1.13236        10.89855         1.22868
C          1.12424        12.24057         0.85861
C          2.33054        10.17672         1.21842
C          2.34629        12.91445         0.64187
C          1.23528        15.08123         0.05978
C          1.27925        16.45872        -0.21409
C          2.38330        14.36251         0.40085
C          2.47219        17.18585        -0.11270
C          2.54081        18.58450        -0.43672
C          3.97728         2.31348        -2.08002
C          3.86861         3.64239        -1.57278
C          5.27141         1.73668        -2.24053
C          5.05037         4.37396        -1.28505
C          3.65486         6.37162        -0.53654
C          3.62041         7.62744         0.14501
C          4.93372         5.82640        -1.03499
C          4.80268         8.53914         0.19463
C          3.56529        10.73782         0.81025
C          3.55011        12.16734         0.69271
C          4.75260         9.93628         0.51007
C          4.80778        12.91194         0.80121
C          3.63555        15.07725         0.51092
C          3.66925        16.51544         0.31033
C          4.81913        14.37300         0.71316
C          4.86412        17.24336         0.43507
C          3.72673        19.26388        -0.39876
C          4.94423        18.61985         0.02127
C          6.41115         2.42090        -1.86099
C          6.30530         3.75620        -1.35935
C          7.79146         1.82118        -2.05340
C          7.49407         4.45172        -0.87771
C          6.18706         6.57873        -0.67521
C          6.07519         7.92783        -0.08567
C          7.43544         5.81346        -0.51801
C          7.32397         8.58681         0.06411
C          5.97854        10.73423         0.21054
C          6.09236        12.16975         0.64204
C          7.29831        10.04700        -0.02657
C          7.30191        12.99080         0.17682
C          6.07814        15.05827         1.02467
C          6.06131        16.60856         0.99051
C          7.36183        14.37640         0.78805
C          7.36417        17.33624         0.94721
C          6.16527        19.30753         0.00742
C          7.40382        18.69464         0.36207
C          8.69801         2.24467        -0.88096
C          8.71308         3.74981        -0.72480
C         10.06099         1.61845        -0.89964
C          9.86199         4.40290        -0.24114
C          8.57397         6.44757         0.03977
C          8.54246         7.87885         0.20029
C          9.78713         5.73316         0.20306
C          9.79786         8.55443         0.44705
C          8.58852        10.79941         0.04210
C          8.59211        12.23324         0.34859
C          9.85823        10.01984         0.26656
C          9.79398        12.89369         0.52270
C          8.56989        15.04754         0.81751
C          8.65436        16.52251         0.97541
C          9.81910        14.33712         0.62410
C          9.89069        17.19641         0.53694
C          8.63282        19.31122         0.16673
C          9.88371        18.60567         0.28182
C         11.22850         2.28799        -0.64706
C         11.23465         3.81730        -0.51147
C         12.48626         1.61720        -0.61628
C         12.24829         4.27021         0.53961
C         10.90450         6.37708         1.00242
C         10.94064         7.87125         0.79124
C         12.27405         5.72175         0.86952
C         12.14425         8.58739         1.27572
C         11.05265        10.75508         0.69477
C         11.04128        12.15885         0.63218
C         12.23685        10.04830         1.03096
C         12.27417        12.86166         0.69036
C         11.04458        15.01295         0.56486
C         11.07974        16.45552         0.44105
C         12.28477        14.28228         0.54798
C         12.31690        17.11504         0.18892
C         11.10272        19.24756         0.00041
C         12.32934        18.53418        -0.02893
C         13.62532         2.18493        -0.02167
C         13.48441         3.46807         0.72225
C         14.85981         1.53248        -0.06329
C         14.71021         4.15751         1.25244
C         13.43643         6.35752         1.23227
C         13.39202         7.80577         1.61069
C         14.73095         5.65728         1.31004
C         14.68964         8.57247         1.77959
C         13.45744        10.72736         1.04382
C         13.49231        12.13069         0.79202
C         14.71974        10.04011         1.42098
C         14.73598        12.80711         0.60790
C         13.51622        14.95197         0.37780
C         13.53349        16.37404         0.15086
C         14.73665        14.20355         0.35590
C         14.75164        17.03056        -0.14025
C         13.55986        19.17539        -0.31350
C         14.76538        18.44894        -0.39354
C         16.03454         2.05565         0.55594
C         15.99273         3.37870         1.23913
C         17.22799         1.38618         0.50346
C         17.27958         4.09781         1.39494
C         15.92183         6.30968         1.52767
C         15.97144         7.76183         2.03193
C         17.19065         5.53340         1.70284
C         17.31955         8.58700         1.64730
C         15.98857        10.67958         0.98466
C         15.96354        12.04881         0.56971
C         17.16478         9.92223         0.90024
C         17.15344        12.68915         0.13636
C         15.95927        14.87012         0.02297
C         15.96437        16.27595        -0.23686
C         17.14598        14.10864        -0.14957
C         17.16307        16.92049        -0.63570
C         15.99080        19.07901        -0.74632
C         17.17979        18.34495        -0.90045
C         18.46402         1.90146         1.18645
C         18.48141         3.42734         1.28701
C         19.66667         1.31609         0.50851
C         19.76549         4.11155         1.33033
C         18.51788         6.28303         1.55732
C         18.35533         7.66550         0.99818
C         19.76660         5.53151         1.29884
C         19.52724         8.28622         0.30164
C         18.30989        10.53245         0.31095
C         18.33946        11.90965        -0.01506
C         19.49457         9.73824        -0.05389
C         19.57136        12.55552        -0.43669
C         18.30250        14.75156        -0.65437
C         18.33193        16.14960        -0.85356
C         19.46355        13.91149        -1.00563
C         19.51717        16.79237        -1.40449
C         18.39328        18.97410        -1.28618
C         19.59808        18.25934        -1.49662
C         20.89558         1.95989         0.55676
C         20.95385         3.28981         1.13474
C         22.11287         1.31978         0.15054
C         22.24401         3.74265         1.46099
C         20.92257         6.35531         1.01411
C         20.84182         7.63570         0.43403
C         22.22698         5.87349         1.37405
C         22.04863         8.39305         0.18839
C         20.79680        10.45797        -0.34752
C         20.80412        11.92830        -0.45913
C         22.05557         9.75090        -0.09539
C         22.06704        12.61094        -0.75345
C         20.67219        14.54681        -1.61209
C         20.51068        15.98519        -1.89202
C         22.05477        13.94877        -1.39251
C         22.40080        17.08024        -1.83993
C         20.80594        18.98887        -1.59740
C         22.15443        18.47551        -1.47559
C         23.37670         1.93488         0.28420
C         23.43618         3.22454         0.92396
C         24.60584         1.28899        -0.04654
C         24.69477         3.97985         0.93660
C         23.38771         6.31901         0.79223
C         23.34337         7.66498         0.18501
C         24.64351         5.58098         0.89535
C         24.61487         8.45681         0.24197
C         23.26431        10.60303         0.06914
C         23.27897        12.00490        -0.42421
C         24.57374         9.93804         0.34527
C         24.53452        12.74521        -0.35464
C         23.38640        14.79448        -1.28629
C         23.37622        16.29676        -1.29118
C         24.51260        14.13768        -0.58572
C         24.61175        17.12794        -1.01453
C         23.14859        19.17493        -0.81906
C         24.35224        18.43822        -0.26630
C         25.84558         1.97481        -0.01446
C         25.87500         3.34854         0.33153
C         27.10460         1.28712        -0.28237
C         27.03422         4.13234        -0.11814
C         25.83217         6.31794         0.36566
C         25.86076         7.77339         0.70046
C         27.08780         5.62686         0.02767
C         27.14166         8.52906         0.62868
C         25.86125        10.65124         0.17362
C         25.78867        12.08166        -0.01602
C         27.06022         9.97640         0.32128
C         27.02975        12.78285        -0.01410
C         25.64776        14.95561        -0.12388
C         25.74480        16.38262        -0.38775
C         27.01500        14.23984         0.11053
C         26.91624        17.08959        -0.18207
C         25.64791        19.21641        -0.22408
C         26.86929        18.56561        -0.19693
C         28.31172         1.94019        -0.38717
C         28.29518         3.41291        -0.51011
C         29.60091         1.28090        -0.53346
C         29.58065         4.19667        -0.57812
C         28.38882         6.31166         0.35068
C         28.42039         7.80173         0.39483
C         29.65358         5.53675         0.10972
C         29.58233         8.50271         0.13068
C         28.35391        10.71388         0.50497
C         28.27896        12.13418         0.02182
C         29.58147         9.95453         0.05884
C         29.50277        12.85927        -0.09922
C         28.24823        15.00768        -0.07858
C         28.17805        16.40055        -0.12001
C         29.50191        14.29183        -0.16964
C         29.39509        17.19637        -0.35071
C         28.09530        19.28852        -0.05532
C         29.34433        18.65010        -0.08014
C         30.76315         1.95351        -0.73687
C         30.85000         3.43488        -0.78750
C         32.12579         4.14965        -0.52646
C         30.96601         6.27590         0.08554
C         30.90295         7.80543         0.04445
C         32.16701         5.47353        -0.27264
C         32.02938         8.59858        -0.48445
C         30.73213        10.66948        -0.23314
C         30.73639        12.13405        -0.17751
C         31.93665         9.94305        -0.60638
C         31.93585        12.86450        -0.20437
C         30.73732        14.99114        -0.19905
C         30.74631        16.47380        -0.32587
C         31.93585        14.26064        -0.18758
C         31.89188        17.28514         0.08971
C         30.55902        19.34283         0.07795
C         31.78905        18.65476         0.19745
O         27.34992         3.82462        -1.53925
O          5.63261         6.60750        -2.05883
O         15.18901         3.47755         2.46681
O         22.30692         4.85103         2.32112
O         18.44361         7.58869        -0.44956
O         26.15211        14.64341         1.21622
O          6.47109        10.53050        -1.15866
O         23.78678        10.45519         1.46628
O         31.21123         7.06473         1.28315
O         26.24125         6.18742        -1.03257
O         12.37814         3.40944         1.70940
O         19.95846         9.89820        -1.43112
O          5.91311        15.87709         2.23109
O         14.62157         9.59485         2.82904
O         24.93746         4.84102         2.09649
O         26.46009         8.18737         1.93805
O         30.11195        16.88956        -1.59093
O         11.61973         4.32926        -1.75254
O         21.47353        16.52900        -2.72625
O         12.44389         8.14231         2.67525
O         30.14785         4.11104        -1.91396
O          5.64180        12.41456         1.98208
O         24.13850         7.91132        -1.02647
O         19.75191        13.78860        -2.47485
O         17.96302         6.00691         2.86023
O          8.11528        17.15568         2.18300
O         22.97444        14.10355        -2.50867
O         29.04132         5.55109         1.43476
O          2.31048         8.90457         1.78659
O          9.45257        10.43376        -1.09572
O          8.04380         1.70666         0.31018
H          8.56442         1.98374         1.09372
O         17.93294         8.98813         2.88743
H         17.58314         8.36722         3.57982
O         16.00492         7.57209         3.46461
H         15.46544         8.28879         3.87253
O         10.52642         6.17759         2.40579
H         11.16660         6.70599         2.94385
O         25.07767        17.54812        -2.33725
H         25.18729        16.74980        -2.89551
O          7.11366        13.19715        -1.25931
H          7.08032        12.29951        -1.67549
O         18.45492         1.40286         2.57059
H         17.69124         1.81617         3.02826
O         23.99680        18.10106         1.10958
H         24.01245        18.92332         1.64208
O         28.51501        10.82909         1.97451
H         27.65349        11.11370         2.34904
O          8.34692         2.25574        -3.29486
H          8.49965         3.22297        -3.25103
H          0.64213         1.68669        -2.54723
H          0.44921         3.94548        -1.57694
H          2.86187         0.59757        -2.83482
H          0.41112         5.29743        -0.11731
H          0.37318         7.35337         1.29054
H          0.20681        10.39892         1.54220
H          0.17382        12.78960         0.84977
H          0.27079        14.56417        -0.03782
H          0.35811        16.97475        -0.52111
H          1.61932        19.09639        -0.75072
H          5.35458         0.72210        -2.65824
H          3.76759        20.32462        -0.68608
H          7.72208         0.70606        -2.08977
H          6.18166        20.34861        -0.34843
H         10.07702         0.51491        -0.90596
H          8.65781        20.34382        -0.21319
H         12.58571         0.64419        -1.12334
H         11.10777        20.32724        -0.21129
H         14.93662         0.56729        -0.58638
H         13.57080        20.25955        -0.50092
H         17.27843         0.41079        -0.00454
H         15.99603        20.16159        -0.94334
H         19.59550         0.29482         0.10627
H         18.40390        20.07057        -1.38525
H         22.05315         0.30244        -0.26216
H         20.70497        20.08208        -1.48939
H         24.58397         0.23936        -0.37409
H         22.92424        20.17103        -0.40271
H         27.07888         0.18752        -0.33020
H         25.61390        20.31397        -0.13736
H         29.61804         0.18140        -0.48709
H         28.05485        20.38250         0.06056
H         31.70384         1.38899        -0.82582
H         33.06394         3.58833        -0.65357
H         33.14209         5.96432        -0.13696
H         32.96756         8.08294        -0.73394
H         32.80132        10.50477        -0.98625
H         32.90167        12.34256        -0.22964
H         32.89794        14.79108        -0.20996
H         32.83641        16.78948         0.35565
H         30.54027        20.43422         0.20968
H         32.68648        19.23615         0.45434
