         630
 CSIRO Nanostructure Databank - Neutral Graphene Oxide Data Set
C         23.06679        27.48349        -0.62431
C         23.07149        28.85593        -0.79101
C         23.06724        31.77821        -0.99449
C         23.07430        33.13060        -1.25745
C         23.09526        35.95051        -2.07519
C         23.07969        37.28670        -2.35598
C         23.02632        40.25000        -1.69582
C         23.04622        41.49447        -1.16731
C         22.99594        44.27971        -0.19918
C         22.92661        45.57998         0.18022
C         25.40795        24.68982         0.19849
C         24.28008        25.36845        -0.13010
C         25.38105        27.57504         0.12350
C         24.22334        26.81548        -0.15940
C         25.43628        28.95881        -0.17432
C         24.25109        29.61846        -0.59063
C         25.50988        31.75040        -0.84790
C         24.26965        31.05073        -0.81274
C         25.53081        33.13475        -1.21966
C         24.29516        33.84340        -1.43934
C         25.57725        35.83580        -2.18278
C         24.29602        35.19573        -1.88156
C         25.61328        37.38684        -2.46245
C         24.28976        38.10754        -2.50755
C         25.54438        40.33267        -1.94556
C         24.25132        39.60787        -2.20659
C         25.51203        41.64664        -1.26012
C         24.26841        42.26223        -0.98836
C         25.45724        44.34065        -0.47613
C         24.23578        43.62959        -0.58395
C         25.44300        45.79723        -0.28969
C         24.08101        46.47612         0.05012
C         25.33792        48.38654         0.93935
C         24.14879        47.73150         0.78969
C         27.95809        23.27449         0.75208
C         27.90085        24.71842         0.76541
C         26.57271        25.38328         0.78116
C         27.80241        27.68236         0.88463
C         26.52641        26.91007         0.76310
C         27.84218        29.07498         0.39726
C         26.69220        29.69781        -0.06159
C         27.97166        31.76292        -0.59169
C         26.72741        31.08393        -0.49599
C         28.01319        33.10500        -1.11769
C         26.78120        33.80428        -1.35724
C         28.02351        35.88965        -1.75596
C         26.81196        35.17604        -1.74352
C         28.00752        37.34291        -1.79534
C         26.83488        38.07221        -2.04449
C         28.01475        40.20488        -1.27336
C         26.84944        39.54569        -1.89549
C         27.98830        41.57571        -0.93160
C         26.73063        42.29913        -0.93092
C         27.93322        44.37305        -0.24041
C         26.70265        43.66608        -0.53769
C         27.91162        45.74177         0.10543
C         26.66815        46.48200         0.13794
C         27.84446        48.51797         1.03957
C         26.59806        47.79141         0.59601
C         27.89096        49.97227         0.64240
C         30.29661        23.36210        -0.05605
C         29.10200        22.60851         0.46312
C         30.34325        24.76784         0.50585
C         29.10364        25.44188         0.75627
C         30.36051        27.66092         0.71048
C         29.10263        26.91490         0.95410
C         30.39018        29.02189         0.56272
C         29.11457        29.85525         0.65570
C         30.41640        31.71715        -0.42259
C         29.17981        31.12673        -0.15726
C         30.45788        32.95381        -1.16957
C         29.25525        33.73505        -1.39738
C         30.44528        35.94919        -1.65571
C         29.26377        35.16478        -1.65763
C         30.42294        37.34652        -1.35409
C         29.21092        38.05635        -1.44143
C         30.42021        40.11662        -0.78471
C         29.21252        39.45940        -1.16501
C         30.40844        41.50365        -0.45970
C         29.19043        42.22898        -0.50916
C         30.36798        44.31950         0.11604
C         29.17671        43.65170        -0.20779
C         30.38289        45.72347         0.34794
C         29.13795        46.43479         0.38063
C         30.33928        48.53079         0.77724
C         29.12571        47.81595         0.66726
C         30.33084        49.96332         0.88472
C         29.06259        50.64327         0.66257
C         32.84069        20.51609        -0.10780
C         31.64284        21.21913        -0.13146
C         32.82308        23.32458         0.16297
C         31.60565        22.61108         0.04605
C         32.79634        24.74951         0.33607
C         31.58585        25.43287         0.58172
C         32.87623        27.62586         1.13694
C         31.59058        26.88077         0.95329
C         32.87238        29.10138         0.84692
C         31.66764        29.73035         0.48710
C         32.89791        31.72062        -0.28701
C         31.67207        31.07409        -0.04749
C         32.95202        32.95663        -1.03450
C         31.71937        33.35262        -1.63574
C         32.90886        35.91397        -1.42078
C         31.73868        35.40324        -1.91184
C         32.89924        37.23312        -0.71094
C         31.63326        38.01348        -0.98119
C         32.90327        40.00344        -0.19198
C         31.63359        39.36922        -0.70740
C         32.87903        41.50728        -0.23933
C         31.66452        42.16355        -0.16552
C         32.89826        44.31531         0.28499
C         31.61610        43.54182         0.42939
C         32.87475        45.69911         0.52855
C         31.60573        46.41743         0.58670
C         32.79114        48.55988         1.01001
C         31.58521        47.82369         0.76524
C         32.77667        49.94168         1.17502
C         31.53651        50.66097         1.09761
C         32.71591        52.80714         1.37309
C         31.55532        52.09510         1.27373
C         35.35180        19.01264         0.10176
C         35.31801        20.45192         0.21084
C         34.07955        21.18048         0.06997
C         35.31579        23.30211         0.30544
C         34.07224        22.60512         0.16326
C         35.33797        24.72501         0.35537
C         34.07170        25.52894         0.11386
C         35.30877        27.27761         1.32581
C         34.10561        26.81709         0.89524
C         35.33512        29.39299         1.26495
C         34.10301        29.85259         0.76457
C         35.36304        31.81596        -0.03299
C         34.13928        31.13934         0.13445
C         35.36828        33.28015        -0.37078
C         34.12310        33.73405        -1.10037
C         35.33414        35.85958        -1.44801
C         34.13559        35.14797        -1.39788
C         35.30171        37.32929        -1.60425
C         34.12964        38.04329        -1.06576
C         35.37204        40.15306        -0.85301
C         34.14639        39.38014        -0.78278
C         35.35590        41.56017        -0.45914
C         34.14223        42.21405        -0.16456
C         35.36009        44.34855         0.21516
C         34.13235        43.63092         0.11658
C         35.33909        45.72647         0.58720
C         34.10049        46.38655         0.73872
C         35.34135        48.53926         1.33004
C         34.04066        47.78795         1.19163
C         35.32501        50.01147         1.23322
C         34.02768        50.68861         1.62051
C         35.17956        52.87989         1.13097
C         34.00441        52.17030         1.31316
C         35.22869        54.31870         1.13962
C         37.67417        18.96117         0.91120
C         36.45925        18.29758         0.42095
C         37.73908        20.43106         0.80707
C         36.52039        21.13942         0.49923
C         37.76678        23.25577         0.66833
C         36.53093        22.57252         0.49441
C         37.79764        24.67573         0.59609
C         36.55660        25.39047         0.52518
C         37.73363        27.58291         0.76023
C         36.57858        26.79785         0.84659
C         37.76295        29.01637         0.83599
C         36.60054        29.85999         0.83831
C         37.82284        31.83148        -0.07451
C         36.60913        31.18772         0.25805
C         37.82722        33.07648        -0.80811
C         36.64588        33.75628        -1.03534
C         37.90017        35.91268        -1.77393
C         36.60218        35.12280        -1.59733
C         37.91258        37.39253        -1.62787
C         36.61545        38.12855        -1.70112
C         37.80151        40.29645        -1.28355
C         36.55254        39.52869        -1.23105
C         37.82534        41.65815        -0.73030
C         36.59434        42.29566        -0.40768
C         37.84036        44.38862         0.00034
C         36.60654        43.67378        -0.03764
C         37.84541        45.78913         0.38554
C         36.59271        46.45587         0.72809
C         37.80847        48.59352         1.15849
C         36.57713        47.81365         1.00897
C         37.77078        50.05270         1.02147
C         36.48895        50.71237         1.02022
C         37.72579        52.92422         1.05308
C         36.45287        52.18493         0.69610
C         37.69318        54.31834         1.19369
C         36.41486        54.99544         1.16642
C         40.32728        16.22147         0.30529
C         39.11830        16.80018         0.50017
C         40.25015        18.99484         0.99730
C         39.01658        18.19260         0.96747
C         40.20107        20.39429         1.17785
C         38.94556        21.10843         1.03220
C         40.17305        23.28180         1.11069
C         38.98169        22.55591         0.94426
C         40.22248        24.68815         0.85458
C         39.00932        25.38893         0.62478
C         40.27114        27.56790         0.47988
C         38.96536        26.85522         0.23803
C         40.31089        28.93777         0.54230
C         39.05626        29.70429         0.74564
C         40.36054        31.78486        -0.10807
C         39.07671        31.20089         0.32660
C         40.37777        33.08886        -0.62092
C         39.13507        33.69180        -1.15134
C         40.40442        35.93075        -1.23285
C         39.18301        35.16660        -1.54723
C         40.38038        37.35247        -1.26288
C         39.10477        38.05688        -1.43600
C         40.33977        40.26937        -1.06331
C         39.11647        39.54571        -1.43658
C         40.31282        41.61945        -0.77557
C         39.05617        42.33032        -0.60345
C         40.31075        44.44859        -0.36283
C         39.06665        43.72234        -0.28493
C         40.24041        45.91482        -0.27039
C         39.03321        46.50765         0.33207
C         40.31040        48.70784         0.62746
C         39.12256        47.87721         0.83595
C         40.24539        50.09278         0.87834
C         38.97690        50.77392         0.97486
C         40.18793        52.92771         1.13828
C         38.96626        52.21982         1.04479
C         40.16782        54.36111         1.27991
C         38.92304        55.05414         1.36251
C         40.12677        57.14943         1.69952
C         38.93958        56.45948         1.58226
C         42.78914        16.26912         0.61933
C         41.55532        16.92591         0.60887
C         42.69678        19.00567         1.29127
C         41.50094        18.31559         0.94048
C         42.64301        20.43132         1.49437
C         41.42092        21.11256         1.37058
C         42.69530        23.28710         1.32145
C         41.39438        22.59443         1.65971
C         42.70137        24.67294         1.00219
C         41.48729        25.36449         0.78988
C         42.78480        27.50867         0.50171
C         41.51703        26.75877         0.21101
C         42.78190        28.92963         0.38769
C         41.56014        29.66134         0.38097
C         42.81074        31.73717        -0.14554
C         41.57120        31.06198         0.09314
C         42.82141        33.12018        -0.49613
C         41.60099        33.80123        -0.75329
C         42.83388        35.95370        -0.90078
C         41.60745        35.22837        -0.99711
C         42.82249        37.37634        -0.94844
C         41.59120        38.06379        -1.11595
C         42.78163        40.19709        -0.56203
C         41.64364        39.56038        -1.35080
C         42.77190        41.69541        -0.71129
C         41.57366        42.36661        -0.67344
C         42.79573        44.55486        -0.53785
C         41.54062        43.81895        -0.57828
C         42.80746        45.95812        -0.28738
C         41.54083        46.70616        -0.24981
C         42.75795        48.72240         0.53020
C         41.55224        48.06869         0.32091
C         42.76049        50.08118         1.19272
C         41.46909        50.84373         0.98511
C         42.70420        52.95597         1.53521
C         41.43932        52.21393         1.15284
C         42.67401        54.38561         0.99527
C         41.38394        55.09078         1.33549
C         42.61585        57.19585         1.66663
C         41.37253        56.47858         1.55469
C         43.93960        16.92740         1.07561
C         45.04190        18.91250         2.21871
C         43.90594        18.27539         1.43770
C         45.08550        20.43435         2.08015
C         43.86402        21.16591         1.72064
C         45.18394        23.25504         1.35679
C         43.90450        22.56603         1.48921
C         45.18296        24.68001         1.05792
C         43.97712        25.36669         0.87676
C         45.23701        27.49125         0.55289
C         43.98641        26.79476         0.64233
C         45.24827        28.90141         0.32236
C         44.02740        29.62561         0.26421
C         45.27446        31.70609        -0.20109
C         44.03716        31.02596        -0.00262
C         45.27037        33.08762        -0.54379
C         44.07007        33.80998        -0.65647
C         45.28897        35.96741        -0.85532
C         44.07943        35.24574        -0.82962
C         45.30814        37.39119        -0.81741
C         44.07661        38.09894        -0.84645
C         45.31974        40.20840        -0.85518
C         44.10341        39.51663        -0.82428
C         45.31950        41.67660        -1.09748
C         44.02928        42.42608        -0.94971
C         45.27741        44.53989        -0.50321
C         44.03803        43.87597        -0.67004
C         45.26832        45.95343        -0.20360
C         44.01495        46.66036        -0.09759
C         45.19562        48.81460         0.27283
C         43.99751        48.06596         0.24138
C         45.21732        50.20942         0.57926
C         44.00389        50.88823         0.89963
C         45.18739        53.03065         1.06910
C         43.98472        52.26472         1.10451
C         45.15897        54.45917         1.28780
C         43.92584        55.15097         1.35911
C         43.82934        56.54716         1.60099
C         47.54433        18.94159         1.75083
C         46.38556        18.26995         1.98704
C         47.63201        20.36541         1.60014
C         46.41165        21.15151         1.86399
C         47.70406        23.26990         1.53433
C         46.37767        22.56448         1.45329
C         47.66953        24.66961         0.99460
C         46.44839        25.36329         0.89830
C         47.69820        27.44839         0.41421
C         46.45700        26.76823         0.61168
C         47.71387        28.85609         0.19700
C         46.48826        29.59064         0.15002
C         47.75901        31.67868        -0.22545
C         46.50415        30.98774        -0.10169
C         47.79822        33.07137        -0.48050
C         46.54708        33.74503        -0.83905
C         47.82172        35.97539        -0.69344
C         46.56709        35.26311        -0.98343
C         47.80041        37.38240        -0.60482
C         46.55290        38.10109        -0.72863
C         47.80054        40.25135        -0.54644
C         46.56006        39.51489        -0.75096
C         47.81315        41.64786        -0.52158
C         46.65063        42.43013        -1.10474
C         47.73660        44.51171        -0.30172
C         46.53151        43.84834        -0.57772
C         47.73883        45.96136        -0.12927
C         46.47754        46.64966        -0.09488
C         47.73154        48.87576         0.13633
C         46.44032        48.12197        -0.07411
C         47.70069        50.28218         0.56251
C         46.45759        50.94511         0.65046
C         47.66403        53.08207         0.99602
C         46.43719        52.35842         0.91019
C         47.60583        54.48539         1.25234
C         46.41007        55.14186         1.39855
C         50.03573        20.28091         0.93469
C         48.82730        21.01947         1.19614
C         50.07728        23.09304         0.69251
C         48.87998        22.43859         1.06195
C         50.08559        24.51963         0.56024
C         48.90554        25.29988         0.70083
C         50.13927        27.40430         0.19424
C         48.92642        26.72171         0.42432
C         50.16612        28.80016         0.01312
C         48.95161        29.53685         0.02940
C         50.21547        31.65289        -0.21922
C         48.97758        30.95693        -0.12777
C         50.23382        33.07020        -0.33272
C         49.01213        33.79069        -0.47791
C         50.25067        35.93789        -0.35284
C         49.02967        35.24013        -0.54162
C         50.24725        37.37350        -0.27639
C         49.02250        38.09903        -0.40200
C         50.24507        40.22091        -0.07319
C         49.02795        39.52308        -0.32011
C         50.24401        41.65055         0.09197
C         48.99578        42.36972        -0.14898
C         50.06403        44.52967         0.59717
C         48.94806        43.77113        -0.08684
C         50.24213        45.89470        -0.08117
C         48.93891        46.64944         0.03645
C         50.22510        48.82127         0.63245
C         48.93254        48.05978         0.43520
C         50.18911        50.29494         0.57621
C         48.93771        50.98027         0.69505
C         50.16434        53.09086         0.81193
C         48.92088        52.40210         0.84744
C         51.21945        20.91198         0.67113
C         52.56008        22.97858         0.37897
C         51.30913        22.33696         0.54917
C         52.60290        24.39655        -0.00282
C         51.29621        25.18348         0.06601
C         52.55956        27.27795        -0.54674
C         51.44896        26.66966         0.31929
C         52.62516        28.77760        -0.31351
C         51.42227        29.49823        -0.15900
C         52.68085        31.61539        -0.32746
C         51.44401        30.91987        -0.21375
C         52.69971        33.05178        -0.33244
C         51.48064        33.76952        -0.32984
C         52.71520        35.87512        -0.13919
C         51.48802        35.20275        -0.28567
C         52.68605        37.31209         0.17724
C         51.45206        38.08297        -0.03210
C         52.72484        40.22131         0.16309
C         51.47395        39.49634         0.05775
C         52.71835        41.64944         0.30426
C         51.44514        42.32234         0.40043
C         52.69907        44.53465         0.82603
C         51.39716        43.77050         0.73878
C         52.69408        45.98543         0.46975
C         51.49172        46.65861         0.31833
C         52.62955        48.84317         0.13754
C         51.47859        48.11574         0.32217
C         52.65559        50.28797         0.28776
C         51.39957        51.00569         0.49558
C         51.35412        52.42388         0.61049
C         55.00944        23.03105         0.47841
C         53.82166        22.33911         0.56188
C         55.07613        24.45252         0.25568
C         53.87156        25.14848         0.04475
C         55.05046        27.26185        -0.28578
C         53.87271        26.56457        -0.25173
C         55.05842        28.67959        -0.70408
C         53.83118        29.46688        -0.48052
C         55.14887        31.58291        -0.60181
C         53.88760        30.88098        -0.44148
C         55.15672        33.03297        -0.55397
C         53.94876        33.75023        -0.37310
C         55.19906        35.88804        -0.24574
C         53.95824        35.18254        -0.22550
C         55.23036        37.32683        -0.15033
C         54.00052        38.06511         0.19540
C         55.18610        40.23327        -0.02413
C         53.96255        39.53408         0.08164
C         55.18286        41.65303         0.14394
C         53.97071        42.35202         0.33234
C         55.26242        44.59908         0.52027
C         54.02804        43.76235         0.93314
C         55.14473        46.02722         0.10769
C         53.93824        46.68318         0.19131
C         55.11604        48.86920        -0.22863
C         53.83693        48.09478        -0.36014
C         55.09631        50.21827         0.01898
C         53.88079        50.93360         0.24177
C         57.57760        24.52378         0.27251
C         56.34105        25.15809         0.21208
C         57.59447        27.34665        -0.22326
C         56.32166        26.67005         0.25756
C         57.62332        28.69407        -0.56348
C         56.34976        29.41219        -0.82820
C         57.57819        31.56439        -1.23794
C         56.33229        30.88098        -0.75993
C         57.60166        33.04050        -0.93020
C         56.39350        33.73730        -0.67827
C         57.62740        35.86439        -0.70216
C         56.41396        35.16928        -0.51452
C         57.71830        37.33893        -0.40553
C         56.39344        38.05145        -0.36046
C         57.57073        40.17151        -0.70233
C         56.40463        39.49359        -0.31621
C         57.70684        41.61386        -0.42677
C         56.49607        42.35214         0.15705
C         57.69165        44.58977        -0.42411
C         56.52064        43.86120         0.18060
C         57.52273        46.02083        -0.74237
C         56.34364        46.71916        -0.39839
C         57.46160        48.80738        -1.05066
C         56.33027        48.13279        -0.55165
C         58.79091        25.23451         0.17126
C         60.05381        27.31725        -0.29247
C         58.82317        26.61602        -0.09397
C         60.07293        28.66426        -0.55501
C         58.86100        29.41766        -0.69868
C         60.04970        31.59028        -0.98661
C         58.86271        30.82579        -0.91183
C         60.03301        32.96917        -1.13510
C         58.82352        33.72695        -1.06077
C         59.94690        35.92593        -1.47354
C         58.82174        35.17522        -1.04471
C         59.87257        37.31401        -1.64603
C         58.75694        38.04663        -1.23527
C         59.65454        40.23647        -1.97860
C         58.68080        39.48036        -1.32122
C         59.64627        41.64965        -1.93715
C         58.76663        42.35613        -1.14533
C         59.76166        44.60005        -1.91220
C         58.86050        43.83257        -1.02921
C         59.69231        45.95087        -1.96256
C         58.61008        46.69900        -1.35721
C         58.57107        48.09957        -1.48994
O         38.45907        40.15756        -2.60306
O         57.53321        41.83498         1.03144
O         45.82329        20.99395         3.23219
O         35.79989        37.84557        -2.88017
O         38.18267        18.39002         2.16229
O         31.78410        34.24444        -2.71123
O         38.65317        48.05255         2.22992
O         55.65846        28.88575        -2.05570
O         24.15485        39.10711        -3.57295
O         26.21150        26.16198         1.97393
O         39.15779        30.77975         1.73106
O         56.32093        44.41165         1.52751
O         25.72282        36.41200        -3.52633
O         53.37523        37.60540         1.44732
O         47.20529        48.69634        -1.21744
O         51.94340        44.17862         2.03552
O         44.55507        42.03962        -2.30635
O         46.61692        34.38537        -2.16200
O         49.47574        48.27761         1.78412
O         26.42439        40.29425        -3.10212
O         34.64552        47.99817         2.53041
O         32.12130        27.17087         2.31327
O         51.78350        24.68559        -1.20309
O         58.90599        44.32191         0.35580
O         24.66089        46.51758        -1.28829
O         39.35495        34.10717        -2.53869
O         28.45866        27.44456         2.17791
O         37.18979        35.37656        -2.92452
O         40.72876        46.61085        -1.47822
O         35.32593        28.36549         2.20984
O         41.53626        26.54187        -1.27432
H         41.84400        27.38026        -1.68297
O         54.18167        43.47394         2.34146
H         55.15092        43.44974         2.53063
O         49.53856        44.75191         1.92431
H         50.31261        44.78498         2.53792
O         30.07048        23.52440        -1.51656
H         29.19132        23.94671        -1.62287
O         52.20308        27.11454        -1.93527
H         52.94838        27.43812        -2.48279
O         41.91337        39.75780        -2.75978
H         41.10550        39.53200        -3.26763
O         34.06370        25.88826        -1.31624
H         34.05208        25.05269        -1.82990
O         44.71040        18.63927         3.61528
H         45.22322        19.29011         4.14723
O         31.51168        43.27286         1.89309
H         32.39111        42.95519         2.19192
O         57.46874        31.48438        -2.71809
H         57.14432        30.58247        -2.93691
O         42.68959        54.24425        -0.46348
H         42.67204        55.14428        -0.85135
O         27.79559        48.50305         2.51424
H         28.61047        48.94519         2.83575
O         53.62258        47.91005        -1.81667
H         53.65392        48.80120        -2.22586
O         58.22530        37.42036         0.98961
H         59.11702        37.01077         0.99374
O         36.39934        52.22625        -0.78100
H         36.42929        53.17090        -1.04471
O         47.03362        42.59135        -2.50851
H         46.18979        42.65839        -3.01680
O         42.72624        53.01300         2.98414
H         42.79958        52.08704         3.30781
O         35.35268        34.00960         0.92196
H         34.51599        33.78021         1.38071
O         41.26921        22.71431         3.13248
H         42.02657        22.23100         3.52780
O         56.28462        27.00285         1.70769
H         57.04484        26.54313         2.12497
O         29.03614        30.25754         2.06515
H         28.92914        29.42155         2.57980
O         32.95146        36.95756         0.72253
H         32.99638        37.83691         1.17937
O         47.93851        23.43546         2.99291
H         47.62135        22.61763         3.43602
O         34.00187        50.61820         3.08844
H         34.13150        49.66452         3.31958
O         32.95757        39.68454         1.25878
H         32.15934        40.08069         1.67138
O         42.47432        39.92043         0.84343
H         43.20237        40.27583         1.39470
O         50.45095        45.59775        -1.49793
H         50.53889        46.44420        -1.98464
O         42.82254        49.83550         2.65278
H         42.04087        49.29024         2.88912
O         38.81408        26.86179        -1.22757
H         39.66945        26.51924        -1.59093
O         51.88876        26.82326         1.69899
H         51.13871        26.60273         2.29037
H         22.15965        26.90308        -0.84493
H         22.15276        29.34847        -1.13564
H         22.09956        31.26714        -0.90525
H         22.11306        33.64634        -1.37700
H         22.12673        35.44118        -1.98037
H         22.11501        37.77802        -2.54314
H         22.06724        39.73249        -1.83562
H         22.09113        41.94423        -0.86570
H         22.08785        43.66747        -0.11545
H         21.99332        45.98474         0.59948
H         25.44956        23.60011         0.05722
H         23.40258        24.81939        -0.50337
H         25.35684        49.34709         1.47403
H         23.23310        48.12237         1.25710
H         27.05901        22.71276         1.04457
H         26.95060        50.50607         0.44132
H         29.11564        21.51062         0.50055
H         29.07018        51.72170         0.44880
H         32.80605        19.42460        -0.21838
H         30.71106        20.65922        -0.28922
H         32.65316        53.90301         1.42635
H         30.60105        52.63852         1.29495
H         34.45228        18.47335        -0.22368
H         34.29632        54.89512         1.21549
H         36.42876        17.19986         0.39137
H         36.38877        56.09178         1.21849
H         40.39422        15.17322        -0.02148
H         38.19864        16.21746         0.35240
H         40.12046        58.23285         1.88661
H         37.99635        57.01331         1.67689
H         42.84171        15.20563         0.34572
H         42.58246        58.27817         1.85663
H         44.87109        16.35340         1.17036
H         44.74348        57.13529         1.76384
H         48.46378        18.34747         1.65146
H         46.44096        17.18288         2.14216
H         48.53585        55.06170         1.34507
H         46.42481        56.22285         1.59119
H         50.02445        19.18444         0.98330
H         50.18940        54.18376         0.91552
H         52.12022        20.30341         0.51131
H         52.28339        53.00693         0.56181
H         55.94359        22.47510         0.63762
H         53.85593        21.26600         0.79731
H         56.03794        50.78468         0.05753
H         53.94825        52.01839         0.39487
H         57.63309        23.43004         0.36978
H         57.43950        49.90032        -1.15936
H         59.73918        24.68181         0.23347
H         60.99850        26.76048        -0.20729
H         61.04228        29.16672        -0.67424
H         61.02685        31.09362        -0.90266
H         60.99456        33.49726        -1.19841
H         60.85920        35.40632        -1.79490
H         60.72186        37.82270        -2.12399
H         60.46204        39.74011        -2.53184
H         60.42735        42.17730        -2.50027
H         60.54387        44.07808        -2.47946
H         60.42471        46.51429        -2.55966
H         59.42006        48.62531        -1.94904
