         634
 CSIRO Nanostructure Databank - Neutral Graphene Oxide Data Set
C         23.63426        69.79599        -2.41885
C         23.71778        71.18813        -2.69233
C         22.81818        71.82283        -3.58973
C         23.80254        73.97014        -3.05797
C         22.87571        73.18894        -3.78201
C         25.58611        65.67034        -0.78044
C         25.54438        67.03845        -0.71638
C         24.29455        67.74022        -1.18229
C         25.60255        69.91525        -0.97308
C         24.52624        69.17832        -1.56448
C         25.64178        71.30413        -1.15724
C         24.69364        71.96525        -1.99776
C         25.59610        74.26345        -1.33860
C         24.69487        73.38288        -2.17274
C         27.92287        61.32804        -0.14564
C         27.90735        62.74324        -0.08283
C         26.76388        63.50922        -0.44845
C         27.83233        65.62343         0.19741
C         26.74708        64.92011        -0.35054
C         27.74573        67.08890         0.55046
C         26.64352        67.81124        -0.18816
C         27.87207        69.92075         0.13676
C         26.67628        69.19940        -0.27469
C         27.79963        71.39971         0.24057
C         26.65112        72.10685        -0.42940
C         28.00449        74.15793        -0.68296
C         26.80793        73.53165        -0.81594
C         30.33962        57.00648         0.22958
C         30.26861        58.40418         0.41027
C         29.11166        59.15729         0.16512
C         30.26537        61.32432         0.50994
C         29.07875        60.59478         0.20607
C         30.27965        62.73456         0.57685
C         29.07579        63.43606         0.36563
C         30.27971        65.64499         0.95154
C         28.99015        64.86928         0.65982
C         30.25176        67.11857         0.73169
C         29.08998        67.80597         0.47101
C         30.32378        70.02538         0.52048
C         29.07587        69.26018         0.37206
C         30.32898        71.39923         0.55807
C         29.04847        72.20297         0.62569
C         30.39104        74.14795        -0.22327
C         29.18036        73.51182        -0.14655
C         32.85884        52.74069         0.17101
C         32.82297        54.16301         0.25256
C         31.60506        54.88621         0.19804
C         32.80975        57.00666         0.51957
C         31.56610        56.28964         0.32738
C         32.81166        58.40984         0.72937
C         31.50324        59.10191         0.83646
C         32.80440        61.27951         0.53311
C         31.49737        60.59654         0.84847
C         32.76428        62.76890         0.77259
C         31.53578        63.46392         0.77540
C         32.77384        65.56571         0.71098
C         31.54551        64.88551         0.82841
C         32.80917        67.04869         0.79602
C         31.53448        67.83637         0.87418
C         32.80445        69.96412         0.65864
C         31.59095        69.30397         0.64500
C         32.86624        71.40527         0.57249
C         31.59813        72.17826         0.85795
C         32.81925        74.19914         0.03240
C         31.62591        73.54232         0.19111
C         35.30000        48.42501         0.28920
C         35.25216        49.85800         0.38334
C         34.09367        50.58335         0.18298
C         35.29931        52.75265         0.32574
C         34.06409        52.02894         0.23288
C         35.29255        54.17555         0.41547
C         34.05321        54.88138         0.39805
C         35.27188        57.02140         0.66605
C         34.04515        56.30298         0.52403
C         35.25957        58.43501         0.81476
C         34.01323        59.11671         0.88672
C         35.27826        61.31915         0.89496
C         33.99324        60.59495         1.23255
C         35.26300        62.70965         0.78645
C         33.99788        63.45033         0.78259
C         35.26656        65.56915         0.47150
C         33.98989        64.86059         0.70424
C         35.29629        67.02499         0.16081
C         33.98359        67.81648         0.18610
C         35.34051        69.91416         0.38907
C         34.10132        69.19781         0.85627
C         35.32289        71.36082         0.02004
C         34.04714        72.07896         0.36714
C         35.28812        74.20224         0.19857
C         34.08209        73.52816         0.23771
C         37.58339        44.10261        -0.40292
C         37.67894        45.57214        -0.06546
C         36.50727        46.27435         0.15767
C         37.76878        48.35118         0.64928
C         36.47218        47.68925         0.38393
C         37.80565        49.84017         0.74505
C         36.51062        50.59512         0.66018
C         37.75360        52.72782         0.36580
C         36.54477        52.05089         0.38924
C         37.76276        54.16923         0.43391
C         36.51713        54.88595         0.54953
C         37.73301        57.02643         0.80935
C         36.52021        56.31343         0.67989
C         37.74301        58.45078         0.82742
C         36.50257        59.16335         0.85240
C         37.74061        61.30531         0.77365
C         36.50638        60.59082         0.84874
C         37.74190        62.72500         0.77969
C         36.50726        63.43375         0.74825
C         37.73429        65.56715         0.86718
C         36.52773        64.84964         0.74422
C         37.64410        67.04882         1.16828
C         36.65415        67.75719         0.20982
C         37.75796        69.96825         0.70984
C         36.55329        69.24702         0.47966
C         37.76051        71.39670         0.72172
C         36.57034        72.10123         0.43199
C         37.75813        74.22213         0.51784
C         36.55101        73.52241         0.38773
C         40.16829        39.89673         0.22154
C         40.13210        41.28033        -0.01222
C         38.90453        42.00574        -0.11245
C         40.13078        44.09717        -0.42344
C         38.89749        43.37627        -0.26777
C         40.14164        45.54494        -0.41827
C         38.95727        46.22388        -0.13053
C         40.24054        48.41226        -0.08642
C         39.03980        47.63477         0.29001
C         40.18641        49.85886        -0.00686
C         39.06245        50.53642         0.39896
C         40.27136        52.73293         0.13305
C         39.06192        52.02235         0.67615
C         40.18838        54.21002        -0.15128
C         38.96731        54.86177         0.42937
C         40.15440        57.04553         0.23150
C         39.03607        56.26729         0.93766
C         40.29569        58.45783         0.82747
C         38.97249        59.18991         0.76071
C         40.23282        61.32570         0.62993
C         38.97935        60.58276         0.71921
C         40.19753        62.74739         0.66068
C         38.98233        63.45436         0.74776
C         40.21546        65.63533         0.85797
C         38.97037        64.89363         0.82121
C         40.16966        67.10255         0.98735
C         38.97052        67.76823         1.12318
C         40.22083        69.98519         1.18399
C         38.91700        69.25672         1.37066
C         40.19801        71.39843         1.15686
C         38.98630        72.11826         0.97007
C         40.19298        74.28327         0.72706
C         38.99333        73.55416         0.77682
C         42.65595        35.75983         1.12181
C         42.64157        37.10164         0.77411
C         41.42224        37.81342         0.59077
C         42.63355        39.95584         0.34339
C         41.39683        39.20466         0.36927
C         42.59740        41.32898         0.07212
C         41.36282        42.00532        -0.15543
C         42.59269        44.07290        -0.93763
C         41.34418        43.39540        -0.42962
C         42.56719        45.58317        -0.84774
C         41.40552        46.27380        -0.58396
C         42.61340        48.48956        -0.74062
C         41.38956        47.74336        -0.49733
C         42.66027        49.87317        -0.57991
C         41.35400        50.61926        -0.59218
C         42.68432        52.78204        -0.27106
C         41.42402        52.06534        -0.16543
C         42.71122        54.18165        -0.01854
C         41.48389        54.93872         0.10627
C         42.70642        57.05514         0.43531
C         41.47949        56.31050         0.25802
C         42.74381        58.44481         0.47900
C         41.46338        59.19645         0.16044
C         42.71296        61.36412         0.61673
C         41.46441        60.65611         0.50793
C         42.70745        62.75381         0.68350
C         41.45190        63.50449         0.34100
C         42.68081        65.64732         0.80809
C         41.42531        64.94960         0.78286
C         42.66342        67.13050         0.52831
C         41.41123        67.85386         0.97202
C         42.74319        69.96886         1.41197
C         41.43220        69.24290         1.14239
C         42.73894        71.45565         1.15359
C         41.46243        72.14055         1.34513
C         42.75514        74.30145         0.79175
C         41.46675        73.70720         1.11268
C         45.12660        32.91888         1.37583
C         43.94260        33.58603         1.45529
C         45.08677        35.63556         0.62395
C         43.94963        35.09558         1.50332
C         45.12651        37.14403         0.65512
C         43.90218        37.83975         0.64789
C         45.12931        39.94127         0.42509
C         43.88998        39.25180         0.51449
C         45.12825        41.42134         0.42812
C         43.81825        42.14912         0.19896
C         45.07545        44.20577        -0.41431
C         43.86350        43.51500        -0.33024
C         45.12189        45.60793        -0.74135
C         43.85278        46.25070        -1.29988
C         45.14150        48.51860        -1.02976
C         43.83215        47.77667        -1.16730
C         45.12639        49.94483        -0.66368
C         43.89550        50.62206        -0.57847
C         45.14761        52.75922        -0.33093
C         43.90261        52.05876        -0.39463
C         45.16930        54.16843        -0.07729
C         43.94760        54.85104         0.12832
C         45.26846        57.01257         0.51808
C         43.94268        56.25573         0.56334
C         45.23039        58.48236         0.49371
C         43.97749        59.18933         0.62814
C         45.21486        61.33895         0.85437
C         43.95231        60.59943         0.71638
C         45.21058        62.82125         0.67779
C         43.93614        63.51369         1.11033
C         45.13168        65.71944         0.57050
C         43.89080        64.98557         0.78876
C         45.15775        67.08355         0.63194
C         43.91666        67.80174         1.08842
C         45.22582        70.00209         0.96646
C         43.91504        69.29554         0.70769
C         45.20921        71.41892         1.05626
C         43.93907        72.14179         1.08911
C         45.20900        74.25367         0.79055
C         43.95129        73.59314         0.92284
C         46.37720        33.61350         1.23929
C         47.60785        35.71747         0.86268
C         46.40937        34.97525         0.95517
C         47.62288        37.11025         0.63121
C         46.34902        37.82875         0.51465
C         47.62154        39.95325         0.00477
C         46.34230        39.23500         0.37964
C         47.62244        41.40561         0.49819
C         46.36643        42.15140         0.12266
C         47.58630        44.17808        -0.56348
C         46.32858        43.48300        -0.19623
C         47.60866        45.64606        -0.57082
C         46.34671        46.33068        -0.71482
C         47.60127        48.46791        -0.74005
C         46.38839        47.75556        -0.84187
C         47.60020        49.91109        -0.74021
C         46.37039        50.63522        -0.62492
C         47.61785        52.76929        -0.56985
C         46.38314        52.05566        -0.49338
C         47.62795        54.19173        -0.45469
C         46.41555        54.89606        -0.14206
C         47.61572        57.04936        -0.32479
C         46.45043        56.29911         0.01090
C         47.58903        58.46460        -0.23249
C         46.43066        59.15201         0.23847
C         47.66523        61.35555         0.06145
C         46.50907        60.59146         0.51595
C         47.69462        62.80447         0.45825
C         46.34476        63.49813         0.38049
C         47.64682        65.65688         0.45720
C         46.35067        64.98081         0.06759
C         47.62245        67.08974         0.79462
C         46.40986        67.86837         0.31757
C         47.66639        69.99948         0.91988
C         46.42499        69.30398         0.80944
C         47.66189        71.41176         1.00468
C         46.44091        72.12110         1.01346
C         47.66077        74.25310         0.67320
C         46.43313        73.57503         0.86970
C         48.83055        37.83580         0.64682
C         50.06183        39.96557         0.57885
C         48.88348        39.24019         0.45929
C         50.11429        41.39010         0.31561
C         48.90501        42.07412         0.11107
C         50.13950        44.22138        -0.27280
C         48.90766        43.44188        -0.38599
C         50.10492        45.61606        -0.44774
C         48.83565        46.32657        -0.57909
C         50.07149        48.47640        -0.67491
C         48.84725        47.76057        -0.64453
C         50.04760        49.88350        -0.83763
C         48.83068        50.61461        -0.82279
C         50.04941        52.79220        -0.91789
C         48.84374        52.06471        -0.80162
C         50.07585        54.20807        -0.78085
C         48.84474        54.91259        -0.59821
C         50.06214        57.03517        -0.78313
C         48.84567        56.34358        -0.60596
C         50.05299        58.48727        -0.97822
C         48.73790        59.24646        -0.70624
C         50.02184        61.39023        -0.62515
C         48.80473        60.70599        -0.42966
C         50.06605        62.85821        -0.56967
C         48.77638        63.60405        -0.22574
C         50.10464        65.68703         0.24100
C         48.85916        65.01604         0.21589
C         50.22159        67.02508         0.94687
C         48.91461        67.81409         1.02261
C         50.14343        69.96853         0.78104
C         48.92796        69.28987         0.88696
C         50.18442        71.40383         0.71544
C         48.96566        72.16158         1.18978
C         50.08136        74.23985         0.32734
C         48.90553        73.58560         0.67849
C         51.33436        42.10693         0.21759
C         52.56803        44.24153        -0.00998
C         51.36148        43.51419        -0.00506
C         52.57863        45.63987        -0.24574
C         51.33349        46.34030        -0.43763
C         52.56412        48.44224        -0.64769
C         51.34157        47.76040        -0.60395
C         52.57938        49.91160        -0.73268
C         51.30624        50.58570        -1.11201
C         52.58267        52.82893        -1.05399
C         51.31553        52.10327        -1.20721
C         52.56949        54.21172        -0.89386
C         51.31347        54.92139        -0.81818
C         52.54393        57.07648        -0.86539
C         51.31196        56.34532        -0.80993
C         52.52717        58.51386        -0.90519
C         51.33104        59.21128        -0.93201
C         52.56460        61.42341        -0.59445
C         51.28386        60.69177        -0.90227
C         52.52380        62.79787         0.04696
C         51.30347        63.58642        -0.33840
C         52.57006        65.66086        -0.00962
C         51.30941        64.97120        -0.05116
C         52.52125        67.14579        -0.22834
C         51.36951        67.85487         0.43520
C         52.66807        69.97308         0.59386
C         51.36847        69.21118         0.53871
C         52.57935        71.39820         0.12302
C         51.34620        72.08969         0.33493
C         52.47218        74.21690        -0.21239
C         51.33244        73.54749         0.16495
C         53.79583        46.35286        -0.27697
C         55.04100        48.44317        -0.62295
C         53.82647        47.75539        -0.51287
C         55.16271        49.87807        -1.05527
C         53.86618        50.65190        -0.87227
C         55.08339        52.82156        -0.78380
C         53.87529        52.10160        -1.34525
C         55.05544        54.23799        -0.70813
C         53.80874        54.95785        -0.82734
C         55.03778        57.09456        -0.67590
C         53.79018        56.36683        -0.80973
C         55.05779        58.50023        -0.69159
C         53.82819        59.28382        -1.06660
C         55.06686        61.38495        -0.36363
C         53.78245        60.58569        -0.24299
C         55.03607        62.82738        -0.29202
C         53.81527        63.54265        -0.18729
C         55.03561        65.69120        -0.30652
C         53.79366        64.96359        -0.17320
C         55.05199        67.11076        -0.26403
C         53.83864        67.84831        -0.06778
C         55.06515        69.96020        -0.15184
C         53.85781        69.22346         0.06442
C         55.00164        71.37088        -0.26891
C         53.76290        72.06063        -0.22356
C         55.00116        74.21540        -0.12895
C         53.74435        73.52315        -0.61604
C         56.29958        50.60520        -0.29078
C         57.45346        52.82201        -0.23531
C         56.27317        52.11746        -0.47424
C         57.49510        54.24193        -0.28826
C         56.26197        54.95366        -0.47342
C         57.48109        57.09801        -0.34414
C         56.25791        56.38176        -0.47170
C         57.47912        58.50016        -0.42542
C         56.26707        59.21283        -0.54608
C         57.52075        61.36726        -0.39729
C         56.27190        60.67934        -0.47039
C         57.53643        62.83097        -0.04805
C         56.25836        63.55869        -0.34665
C         57.50082        65.70038        -0.53035
C         56.26548        64.96797        -0.39594
C         57.50764        67.08123        -0.50325
C         56.28679        67.81958        -0.34196
C         57.53344        69.95856        -0.32811
C         56.28985        69.24145        -0.33480
C         57.51309        71.40577        -0.23347
C         56.25102        72.13222        -0.60614
C         57.44913        74.23048         0.15724
C         56.20846        73.56883        -0.14160
C         58.70192        54.95665        -0.12103
C         59.91468        57.08456         0.11525
C         58.73820        56.37848        -0.13150
C         59.88557        58.57962         0.29903
C         58.80550        59.19612        -0.58766
C         59.97607        61.38529        -0.31092
C         58.74679        60.69068        -0.39564
C         59.98892        62.82703        -0.43487
C         58.79222        63.52207        -0.50178
C         60.02599        65.69964        -0.48073
C         58.77112        64.97043        -0.90696
C         60.02483        67.08592        -0.42052
C         58.77808        67.83401        -0.83364
C         59.96447        69.92461        -0.04324
C         58.75327        69.26216        -0.34947
C         59.92651        71.37030         0.41101
C         58.66275        72.10324         0.03573
C         59.92026        74.23069         0.34336
C         58.66620        73.55173         0.16438
C         61.19772        59.29529         0.05131
C         62.53133        61.34204        -0.46375
C         61.21514        60.63679        -0.21319
C         62.48154        62.84520        -0.30921
C         61.25741        63.54247        -0.40761
C         62.44534        65.68137        -0.04123
C         61.24039        64.96711        -0.31254
C         62.41564        67.08449         0.11532
C         61.22240        67.80170        -0.10341
C         62.41663        69.98181         0.28852
C         61.18331        69.23976         0.02297
C         62.40316        71.36400         0.30696
C         61.15741        72.10667        -0.10552
C         62.38885        74.25760         0.29532
C         61.14437        73.57620         0.25773
C         63.67513        63.55251        -0.12599
C         64.91150        65.68267         0.11836
C         63.69387        64.95851         0.02335
C         64.93218        67.07697         0.27722
C         63.64208        67.77574         0.65910
C         64.87904        69.95261         0.38237
C         63.66049        69.26279         0.42716
C         64.89785        71.38410         0.37612
C         63.62907        72.11827         0.72456
C         64.84955        74.23735         0.18100
C         63.61742        73.57756         0.32195
C         66.12395        67.81275         0.21782
C         67.33564        69.95977         0.18075
C         66.13831        69.23161         0.28024
C         67.34461        71.37362         0.14910
C         66.09236        72.08962         0.24917
C         67.31591        74.21470         0.04355
C         66.08273        73.53797         0.18045
C         68.54397        72.11283         0.02453
C         68.51896        73.50790        -0.02182
O         48.06789        67.39339         2.16798
O         49.09946        63.39810        -1.58975
O         31.39008        59.86166         2.11523
O         53.27189        50.52486         0.44750
O         32.29931        67.46871         2.10711
O         38.60198        47.75973         1.70219
O         44.46861        48.36857        -2.35952
O         46.10989        60.88964         1.93434
O         51.30910        51.23889        -2.42129
O         49.15562        58.91697        -2.06883
O         48.24377        43.57370        -1.72497
O         26.63295        71.85074         1.02935
O         52.11700        61.38348        -1.96616
O         44.39892        42.01259         1.56407
O         56.27708        72.28367        -2.14587
O         37.13615        50.30586         1.97935
O         35.27466        66.09259        -0.97647
O         29.42563        65.20899         2.05731
O         44.72804        56.46947         1.77813
O         41.43399        73.06871         2.44666
O         52.93513        70.08862         2.04586
H         52.15876        70.53516         2.44888
O         44.75951        35.25862        -0.74572
H         45.51497        35.51293        -1.31517
O         53.64411        60.16686         1.13733
H         53.42205        60.96787         1.67118
O         31.59553        72.41929         2.30050
H         30.67064        72.66101         2.55044
O         61.09407        72.04728        -1.56258
H         61.83850        72.57524        -1.91988
O         39.68103        57.12963        -1.12681
H         40.29571        57.70824        -1.63454
O         63.53990        67.62080         2.12585
H         64.27155        68.13888         2.52416
O         44.21545        35.46793         2.89096
H         45.04264        35.01388         3.15931
O         47.62184        41.37537         1.96210
H         46.69105        41.32288         2.27049
O         23.65700        67.01676        -2.24001
H         24.26921        66.98497        -3.00310
O         53.78319        73.58630        -2.08102
H         54.59772        73.10115        -2.37040
O         39.18894        52.13418         2.13928
H         38.48387        51.54925         2.51674
O         37.11939        43.96668        -1.76703
H         37.83539        44.27223        -2.36163
O         37.24097        67.69090        -1.11060
H         36.81005        66.93038        -1.57172
O         41.02131        50.72062        -2.03802
H         41.86346        50.71991        -2.54198
O         39.97179        54.25955        -1.61466
H         40.65273        53.68953        -2.03232
O         43.85322        67.62085         2.51686
H         44.56350        68.14897         2.93680
O         35.36758        71.37111        -1.46959
H         36.12568        70.80934        -1.74123
O         33.85136        60.72288         2.66723
H         32.98508        60.30848         2.90792
O         41.31831        59.16409        -1.30216
H         41.93230        59.83024        -1.67795
O         28.88469        72.59379         2.02511
H         27.91010        72.62368         2.18777
O         43.96015        63.43924         2.57714
H         44.06311        62.49619         2.82915
O         57.54284        50.06256        -0.72351
H         57.43635        49.87900        -1.68564
O         42.63263        43.68422        -2.35365
H         43.20693        44.34339        -2.81897
O         41.46996        63.60455        -1.16125
H         40.55991        63.84812        -1.43876
O         59.49755        58.83257         1.68749
H         60.13601        58.36902         2.26846
O         33.62046        68.07118        -1.19045
H         33.96428        67.31485        -1.72072
O         55.54563        49.86116        -2.45935
H         55.14942        50.65699        -2.89518
O         39.35107        56.14389         2.36838
H         38.71167        55.51592         2.76769
O         46.29306        65.09952        -1.40720
H         45.42495        64.74976        -1.70317
O         60.00827        71.37229         1.86185
H         59.23614        70.88262         2.21337
O         52.21361        67.27756        -1.67656
H         52.90885        66.79325        -2.17183
O         40.68243        58.40589         2.21757
H         40.14384        57.71391         2.67049
O         48.05661        62.84963         1.87672
H         47.42534        62.24540         2.34190
O         54.03987        52.06813        -2.80621
H         53.96328        52.98675        -3.14117
O         58.81906        67.90034        -2.30233
H         58.78874        66.96323        -2.62065
O         59.22347        58.95387        -1.96483
H         58.51533        59.28513        -2.55609
O         46.48669        67.94853        -1.14183
H         46.47095        67.01854        -1.48647
O         53.99513        59.58976        -2.47125
H         53.26034        60.20146        -2.72887
O         57.61013        62.86449         1.44353
H         58.32212        62.24212         1.70923
O         63.60720        72.14216         2.20511
H         64.38487        72.66591         2.49368
O         58.78556        65.00056        -2.39277
H         59.57400        64.49330        -2.68476
O         56.21480        70.96925        -2.72584
H         57.16401        70.69703        -2.79112
O         52.41720        62.55394         1.50424
H         52.43167        63.42780         1.95244
O         43.69247        69.45811        -0.70874
H         44.42373        69.00177        -1.18260
O         38.61697        69.40655         2.81701
H         37.79487        68.88158         2.98475
O         37.06844        67.17263         2.50445
H         37.60380        66.62499         3.11737
O         43.92922        45.96359        -2.73994
H         44.38676        46.74354        -3.14576
O         27.38041        67.13382         1.97571
H         28.02909        66.55224         2.44330
O         42.95330        69.89540         2.85113
H         42.18216        70.31555         3.28841
O         50.59203        66.68386         2.32397
H         49.74443        66.62293         2.82611
O         42.68623        67.20260        -0.92930
H         41.88336        66.74617        -1.25826
O         62.94385        61.06054        -1.81665
H         62.69187        60.13732        -2.02550
O         25.96713        75.44437        -2.05127
H         26.39870        75.17773        -2.88830
O         32.97453        61.10305        -0.90450
H         33.79770        61.56589        -1.17040
O         49.14497        72.27792         2.65142
H         48.35421        72.73862         3.00504
O         47.65257        40.00708        -1.44664
H         47.74670        39.09170        -1.78267
O         34.34378        69.04317         2.27589
H         33.53101        68.64766         2.67860
H         23.81578        75.06199        -3.18509
H         25.00063        74.60818        -0.44479
H         28.10000        75.19960        -1.02921
H         30.44191        75.14275        -0.69598
H         32.83093        75.23419        -0.34436
H         35.29590        75.29697         0.08773
H         37.75947        75.31909         0.43245
H         40.17573        75.31136         0.33462
H         42.77948        75.34255         0.43626
H         45.21517        75.34398         0.64021
H         47.63620        75.32526         0.42223
H         50.04366        75.31103         0.07306
H         52.42713        75.30744        -0.36017
H         54.95702        75.28636         0.12450
H         57.42702        75.31030         0.36927
H         59.90226        75.31702         0.52396
H         62.39121        75.35989         0.28413
H         64.85779        75.32283        -0.00345
H         67.32182        75.31271        -0.01336
H         22.83305        69.19973        -2.87984
H         22.07550        71.21342        -4.12407
H         22.18191        73.68016        -4.47825
H         24.72786        65.12625        -1.20106
H         23.56534        67.74055        -0.32223
H         27.01262        60.79436        -0.45516
H         25.86749        62.99029        -0.81734
H         29.42314        56.45211        -0.02298
H         28.19456        58.63003        -0.13849
H         31.91085        52.18951         0.07952
H         30.66234        54.33485         0.06353
H         34.36038        47.89455         0.07066
H         33.14907        50.05008        -0.00416
H         36.80678        43.61627         0.23972
H         35.54973        45.73485         0.09769
H         39.22495        39.33645         0.30361
H         37.95293        41.45929        -0.03363
H         41.70719        35.21443         1.24433
H         40.47043        37.26507         0.65853
H         45.14703        31.82123         1.44911
H         43.00074        33.04185         1.62016
H         47.31685        33.05542         1.36447
H         48.56563        35.19997         1.02910
H         49.76548        37.29642         0.86499
H         50.99880        39.44121         0.82151
H         52.28561        41.57624         0.36846
H         53.51958        43.71871         0.16426
H         54.74245        45.80897        -0.14441
H         55.97942        47.87813        -0.51343
H         56.19349        50.39776         0.80798
H         58.37458        52.25922        -0.02599
H         59.63619        54.39871         0.04266
H         60.84098        56.53079         0.33909
H         62.14532        58.74325         0.16520
H         63.31194        60.92632         0.24329
H         64.62599        63.00021        -0.08662
H         65.86272        65.14087        -0.00098
H         67.07392        67.28142         0.05134
H         68.28972        69.41672         0.10413
H         69.50202        71.57752        -0.04157
H         69.46350        74.06121        -0.12238
