         324
 CSIRO Nanostructure Databank - Neutral Graphene Oxide Data Set
C          1.22166         3.46297        -0.09154
C          0.11022         4.05490         0.44433
C          1.09435         6.29593         0.35031
C          0.06598         5.46568         0.70908
C          1.08883         7.73088         0.61543
C         -0.11676         8.42808         0.81698
C          1.07171        10.53685         1.07501
C         -0.13086         9.81187         0.96917
C          1.10725        12.00587         1.08331
C         -0.04068        12.72767         0.70182
C          1.15041        14.84653         0.89677
C         -0.01134        14.10738         0.59389
C          1.15885        16.29894         0.67962
C         -0.02514        16.99762         0.32378
C          1.17105        19.11823         0.12608
C         -0.01317        18.35985         0.06228
C          1.17567        20.54858        -0.17271
C         -0.01105        21.25226        -0.52492
C          1.17187        23.39568        -0.62833
C         -0.00808        22.62639        -0.71569
C          1.16960        24.83690        -0.85072
C         -0.02246        25.56470        -1.10459
C          1.20247        27.67041        -1.21189
C         -0.00712        26.93989        -1.27335
C          1.23550        29.09536        -1.49001
C          3.56854         3.66062        -0.80040
C          2.38161         4.24444        -0.42387
C          3.56054         6.45316        -0.19240
C          2.24801         5.75061        -0.45198
C          3.57208         7.80936         0.30906
C          2.31887         8.44853         0.69082
C          3.53108        10.50677         1.45749
C          2.28802         9.81682         1.06843
C          3.49945        11.97965         1.89928
C          2.29358        12.72446         1.36354
C          3.51774        14.89533         1.74314
C          2.30242        14.13486         1.33722
C          3.55061        16.34788         1.33180
C          2.35806        17.02360         0.75811
C          3.58484        19.17860         0.64949
C          2.38724        18.44032         0.49351
C          3.58275        20.63550         0.43925
C          2.36905        21.28602        -0.09051
C          3.62939        23.40454        -0.34376
C          2.40543        22.70209        -0.35578
C          3.64120        24.86061        -0.44931
C          2.38364        25.56644        -0.78391
C          3.68407        27.71597        -0.90778
C          2.40077        26.96618        -0.95834
C          3.68938        29.17910        -1.25173
C          2.39034        29.80475        -1.54969
C          5.98233         3.80483        -1.27144
C          4.77543         4.43331        -0.97271
C          5.95419         6.64106        -0.74444
C          4.72424         5.84389        -0.62796
C          6.01792         7.94732        -0.06986
C          4.77780         8.51815         0.37591
C          6.00918        10.68724         0.85316
C          4.81074         9.83085         1.04980
C          5.99663        12.05588         1.43745
C          4.83073        12.71298         1.68750
C          6.10553        14.93402         1.70303
C          4.83728        14.17280         2.13387
C          6.13817        16.26876         1.39043
C          4.87135        16.96766         1.03189
C          6.16028        19.14121         0.88429
C          4.85886        18.43773         0.74645
C          6.17009        20.58475         0.49000
C          4.89737        21.37240         0.31386
C          6.22147        23.46576        -0.35661
C          4.92539        22.65439        -0.52487
C          6.25355        24.81451        -0.70604
C          4.96353        25.55738        -0.69478
C          6.10734        27.59227        -1.88263
C          4.89702        26.92031        -1.30747
C          6.14997        29.08766        -1.78114
C          4.95972        29.80413        -1.66243
C          8.44970         3.79454        -1.39068
C          7.24613         4.47472        -1.27772
C          8.49878         6.60689        -0.70232
C          7.25054         5.95057        -1.11135
C          8.49207         7.86731        -0.14444
C          7.25545         8.55790         0.14417
C          8.56391        10.67668         0.84635
C          7.29497         9.99763         0.50579
C          8.57035        11.98895         1.21355
C          7.32777        12.69714         1.61315
C          8.66190        14.89798         1.55324
C          7.38391        14.19436         1.80948
C          8.64115        16.27685         1.39801
C          7.40383        16.99405         1.21207
C          8.64344        19.08269         0.62280
C          7.41615        18.34987         0.85364
C          8.68511        20.39899         0.21221
C          7.42759        21.12330        -0.07845
C          8.74911        23.16929         0.09640
C          7.45076        22.62025        -0.29100
C          8.67335        25.13070        -0.62732
C          7.44239        25.57112        -1.09817
C          8.65626        27.64026        -1.95555
C          7.40187        26.77272        -2.09637
C          8.63510        29.04070        -1.67823
C          7.39629        29.74687        -1.69157
C         10.91664         3.81156        -1.56718
C          9.71987         4.46076        -1.35547
C         11.01336         6.41122        -0.48943
C          9.76290         5.96979        -1.21009
C         11.05650         7.73618         0.19861
C          9.75096         8.44623         0.41821
C         11.13702        10.49417         1.28257
C          9.79356         9.84759         0.92969
C         11.14687        11.98833         1.02584
C          9.85163        12.73868         1.17257
C         11.15830        14.81182         1.55569
C          9.89919        14.17293         1.49633
C         11.21475        16.25749         1.52115
C          9.92675        17.00231         1.43744
C         11.21298        19.03143         0.53688
C          9.92210        18.42227         0.97055
C         11.23578        20.47380         0.30279
C          9.97599        21.05492        -0.28509
C         11.19516        23.30078        -0.13491
C          9.94936        22.54443        -0.04678
C         11.15068        24.61463        -0.75215
C          9.94886        25.11396        -1.25956
C         11.13671        27.61766        -1.66843
C          9.92202        27.07017        -2.11304
C         11.10430        29.00652        -1.34845
C          9.86753        29.69656        -1.42170
C         13.38674         3.88044        -1.90967
C         12.19398         4.50457        -1.53456
C         13.45923         6.54752        -0.91472
C         12.25535         5.83603        -1.02741
C         13.50088         7.87915        -0.34054
C         12.33114         8.50112         0.19891
C         13.57350        10.56444         0.74019
C         12.35539         9.84183         0.64326
C         13.64275        11.93133         1.15275
C         12.42496        12.68562         1.30245
C         13.64684        14.76302         1.88721
C         12.39139        14.06440         1.54031
C         13.68195        16.29571         1.86538
C         12.40504        16.96038         1.53080
C         13.62177        19.21938         1.30002
C         12.46366        18.34050         0.98802
C         13.63828        20.60053         0.82794
C         12.43440        21.20903         0.37218
C         13.65180        23.40386        -0.04852
C         12.39812        22.62538         0.02316
C         13.70255        24.58562        -0.99396
C         12.38809        25.25731        -1.31851
C         13.64391        27.54245        -1.17529
C         12.39213        26.78230        -1.59883
C         13.51390        28.97727        -0.79313
C         12.30216        29.65800        -0.92326
C         15.82702         3.95321        -2.25280
C         14.62102         4.58384        -1.86162
C         15.87338         6.68288        -1.43410
C         14.65684         5.94037        -1.39571
C         15.91840         8.02114        -0.87300
C         14.74910         8.55712        -0.28356
C         16.14234        10.58015         0.50890
C         14.81746         9.82099         0.47260
C         16.10750        12.02418         0.80983
C         14.91438        12.61895         1.22705
C         16.22705        14.81749         1.62471
C         14.93993        14.01443         1.74243
C         16.17598        16.31314         1.50456
C         14.97365        16.99628         1.60064
C         16.18602        19.21550         1.16637
C         14.97336        18.47556         1.56498
C         16.16735        20.60054         0.93798
C         14.88747        21.40292         1.17531
C         16.18537        23.42662         0.14024
C         14.89625        22.79034         0.50502
C         16.20016        24.68979        -0.41022
C         15.03635        25.35847        -1.13148
C         15.98103        27.57103        -0.37162
C         14.88845        26.83547        -0.75551
C         15.87546        28.99619        -0.06774
C         14.63442        29.64140        -0.25108
C         18.26587         4.04790        -2.70667
C         17.02705         4.67402        -2.29932
C         18.23258         6.84344        -2.21932
C         17.02515         6.05666        -1.95697
C         18.28960         8.28304        -1.67032
C         17.14434         8.78027        -0.88329
C         18.50839        10.76643        -0.28626
C         17.27228        10.02351        -0.25628
C         18.56960        12.08360         0.26876
C         17.35334        12.75783         0.72146
C         18.69003        14.77211         1.25475
C         17.40514        14.09771         1.09080
C         18.69162        16.34133         1.36040
C         17.39745        17.05752         1.24760
C         18.63101        19.15911         0.66163
C         17.38517        18.43482         1.00854
C         18.64514        20.63262         0.73941
C         17.39356        21.32678         0.71455
C         18.65269        23.43149         0.41257
C         17.40943        22.72435         0.44934
C         18.66181        24.83291         0.16669
C         17.45835        25.44018        -0.41065
C         18.44780        27.70526         0.29558
C         17.33916        26.97517        -0.32663
C         18.26193        29.08148         0.61567
C         16.99184        29.69863         0.40644
C         19.44440         4.74010        -2.75369
C         20.68178         6.87456        -2.45523
C         19.49632         6.14904        -2.48333
C         20.73549         8.19902        -1.96685
C         19.61928         8.86932        -1.46750
C         20.92555        10.82877        -0.67684
C         19.69154        10.14998        -0.80041
C         20.98766        12.09141        -0.12675
C         19.82222        12.75447         0.32883
C         21.10905        14.82562         0.89869
C         19.92038        14.11128         0.83412
C         21.12301        16.23833         1.01000
C         19.96391        16.98854         1.05757
C         21.15919        19.24026         0.97553
C         19.96513        18.42909         0.71242
C         21.10591        20.59377         0.94426
C         19.87024        21.32272         0.76076
C         21.05573        23.54469         0.80567
C         19.87934        22.76036         0.68344
C         21.01034        24.92441         0.73804
C         19.80851        25.61192         0.41988
C         20.76948        27.85973         0.98772
C         19.69756        27.07149         0.51387
C         20.60111        29.21967         1.26235
C         19.36115        29.82879         1.10234
O         13.06368        24.38653        -2.28328
O         14.11260        23.76910         1.31291
O         18.76489        15.47978         2.52970
O          4.94135        17.43205        -0.36113
O         10.49096        12.46020        -0.17689
O          6.29066        20.19135         1.89532
O          7.45669        21.65773        -1.45400
O         17.97665         8.00917        -3.07427
O          7.48125        13.28164         2.95363
O          3.28902        15.96622         2.72800
O          4.16922        21.47063         1.55298
O         13.35747        27.21783        -2.60164
O          6.49829        10.74779        -0.52313
O          6.48195         6.67508        -2.13333
O          8.68247        24.46635         0.61822
O          3.81388        28.67070         0.17219
O         15.79908        14.23000         2.89994
O         11.03219         6.46804         0.96630
O          4.39230        25.55654         0.64971
O         14.16818        19.04572         2.63625
O          9.53796         8.72458         1.85639
O         17.71571        26.29240        -1.56230
O         10.02170        25.73053        -2.50583
O         12.06082        18.29930        -0.43436
O          5.06025        27.03485        -2.76276
O         15.72016         9.74350         1.63581
O          4.33886         9.74587         2.43493
O         19.29116        18.67554        -0.57274
O          9.92394        18.11786         2.41291
O         13.59243        15.53915         3.11567
O          4.89891        22.23991        -1.93092
H          5.81101        21.93686        -2.16952
O         10.04281        20.77510        -1.71664
H          9.19322        21.08561        -2.11024
O          3.29809        11.96119         3.33293
H          3.96738        11.34777         3.71072
O         14.85450        21.64305         2.60773
H         14.26184        22.41706         2.74882
O          7.39222        26.24455        -3.42958
H          6.44918        26.15396        -3.70100
O         15.40629        25.32942        -2.52503
H         14.69544        25.80662        -3.01711
O          1.91948         6.09290        -1.84986
H          2.65020         5.75606        -2.41197
O          4.89879        14.15371         3.57488
H          4.46149        14.97556         3.89573
O          9.91967         6.51447        -2.56261
H          9.08627         6.34610        -3.05299
O         11.31005        10.37266         2.71305
H         10.98431         9.47798         2.96780
H          1.26634         2.37117        -0.21857
H         -0.75603         3.44144         0.72886
H         -0.80512         5.86228         1.25051
H         -1.07190         7.88723         0.76933
H         -1.09844        10.32639         1.03780
H         -0.96979        12.19826         0.45427
H         -0.92092        14.61706         0.25324
H         -0.98722        16.47317         0.27073
H         -0.96343        18.84424        -0.19822
H         -0.96489        20.71648        -0.61592
H         -0.96273        23.11659        -0.94975
H         -0.98538        25.03969        -1.16028
H         -0.94778        27.47549        -1.46650
H          0.27938        29.58970        -1.71833
H          3.63473         2.56491        -0.88679
H          2.37723        30.86170        -1.85492
H          5.97708         2.71781        -1.44620
H          5.00771        30.90474        -1.66522
H          8.43864         2.69912        -1.50362
H          7.40437        30.83570        -1.53783
H         10.91999         2.73197        -1.78388
H          9.85567        30.77674        -1.21475
H         13.37708         2.83788        -2.26035
H         12.25743        30.71981        -0.63946
H         15.81247         2.89479        -2.55158
H         14.53696        30.70112         0.02810
H         18.24736         2.97539        -2.94853
H         16.88971        30.77318         0.61918
H         20.37830         4.22389        -3.02069
H         21.62326         6.37582        -2.72774
H         21.72725         8.66621        -1.89866
H         21.85108        10.36351        -1.03899
H         21.96270        12.59071        -0.06401
H         22.06791        14.33277         0.69157
H         22.08814        16.74436         0.86699
H         22.09980        18.73692         1.23894
H         22.02991        21.15911         1.12429
H         22.02212        23.06352         1.00549
H         21.93818        25.48826         0.90318
H         21.75514        27.40710         1.15864
H         21.45542        29.80635         1.62764
H         19.22861        30.89406         1.33818
