         320
 CSIRO Nanostructure Databank - Neutral Graphene Oxide Data Set
C         30.65247        31.58410        -0.85003
C         30.52560        32.72106        -0.36354
C         30.93289        35.70347        -1.17385
C         31.13836        36.80448        -1.68997
C         31.81206        39.90732        -2.97556
C         31.57375        41.14224        -2.96014
C         33.11063        28.77104        -0.76650
C         32.02228        29.33737        -1.06053
C         32.93290        31.39948        -0.25443
C         31.78286        30.71447        -0.82228
C         32.79277        32.61712         0.41402
C         31.53921        33.58491         0.34161
C         32.88273        35.88844         0.19309
C         31.95943        34.83280        -0.50685
C         32.74155        37.38476        -0.04211
C         32.29931        37.75663        -1.51189
C         33.22810        40.10525        -1.04370
C         32.03114        39.25230        -1.59896
C         32.87916        41.59266        -1.00485
C         32.05424        42.19555        -2.12722
C         32.87673        44.26264        -1.39248
C         32.04275        43.57046        -2.10753
C         35.54463        27.24731         0.71577
C         35.45717        28.56408         0.17828
C         34.37599        29.23353        -0.34421
C         35.31979        31.32892         0.64522
C         34.34821        30.78748        -0.41052
C         35.24800        32.83207         0.81464
C         33.94987        33.22615         1.01080
C         35.22694        36.05830         1.04876
C         33.89055        35.48136         1.00812
C         35.19851        37.54979         0.92925
C         33.95795        38.19568         0.39638
C         35.20100        40.29369        -0.17744
C         33.93723        39.54526         0.17375
C         35.24959        41.79704        -0.09788
C         33.94602        42.47643        -0.36095
C         35.18088        44.63527        -0.11755
C         33.98288        43.92937        -0.67658
C         35.38768        46.08029        -0.42252
C         37.44222        27.33109         2.20372
C         36.28283        26.67039         1.52988
C         37.76521        28.63587         1.47204
C         36.76389        29.25709         0.50551
C         37.77489        31.55172         1.31637
C         36.72362        30.76368         0.56975
C         37.69214        33.06052         1.31888
C         36.46206        33.75239         0.68825
C         37.69428        36.03794         1.21142
C         36.36395        35.27852         1.02013
C         37.70681        37.39048         0.40931
C         36.49172        38.25192         0.67328
C         37.67946        40.29043        -0.02189
C         36.50009        39.62003         0.07826
C         37.75286        41.79189         0.08126
C         36.43077        42.46597        -0.22889
C         37.77670        44.64027        -0.37377
C         36.46674        43.92094        -0.69035
C         37.84097        46.16877        -0.65804
C         36.46359        46.67802        -0.35474
C         40.62967        25.54944         2.54264
C         39.46094        25.95666         2.83270
C         40.25130        27.23798         0.51956
C         38.26252        26.49909         3.14945
C         40.35491        28.65002         0.98582
C         39.11732        29.33882         1.48321
C         40.41816        31.62132         1.23035
C         39.10819        30.84503         1.49755
C         40.13900        33.02914         0.63287
C         39.04316        33.81599         1.43795
C         40.27960        36.07852         1.17123
C         38.97979        35.24568         0.81436
C         40.28109        37.39182         0.33604
C         39.00370        38.21438         0.69041
C         40.24849        40.26728        -0.24899
C         38.96165        39.53855        -0.05885
C         40.27937        41.76240        -0.29676
C         38.95471        42.46493        -0.61342
C         40.20511        44.53204         0.36183
C         38.93358        43.94574        -0.22941
C         40.16904        46.06941         0.49794
C         38.95013        46.83785         0.08311
C         40.20619        48.93055         0.48038
C         39.19172        48.16307         0.22192
C         43.00897        25.05025         1.71795
C         41.66424        25.49429         1.66717
C         42.75417        27.19319         0.08058
C         41.49668        26.36010         0.36621
C         42.69988        28.68944         0.16564
C         41.47138        29.36779         0.64459
C         42.71916        31.58759         0.14806
C         41.38893        30.84702         0.29658
C         42.61850        33.08670        -0.13916
C         41.48538        33.78296         0.63935
C         42.89609        36.03663         0.91818
C         41.56088        35.25307         0.96552
C         42.83152        37.51753         0.52314
C         41.55677        38.21962         0.39542
C         42.72107        40.32127        -0.48456
C         41.51860        39.52766         0.00002
C         42.69918        41.65255         0.31464
C         41.45036        42.43796        -0.12712
C         42.77585        44.66879        -0.01244
C         41.44393        43.95735        -0.36696
C         42.78928        46.20650         0.21373
C         41.46417        46.85591         0.61624
C         42.80170        48.80243         0.77283
C         41.46725        48.37837         0.51079
C         43.97077        25.29146         0.93956
C         45.22387        27.27640        -0.05440
C         44.11386        26.56338         0.27815
C         45.10042        28.73563        -0.45427
C         44.01147        29.44877         0.36434
C         45.24086        31.64288        -0.06979
C         43.90183        30.93511         0.05761
C         45.13980        33.14771        -0.27256
C         43.94193        33.81350        -0.03368
C         45.30067        35.88384         0.20495
C         43.88477        35.33527        -0.08033
C         45.29606        37.41360         0.41201
C         44.01557        38.18520         0.33888
C         45.32768        40.36404        -0.49485
C         44.03297        39.46213        -0.54006
C         45.19850        41.76661         0.09040
C         44.01510        42.40834         0.26202
C         45.20528        44.60744         0.89428
C         44.01860        43.90089         0.33592
C         45.18437        45.96677         1.15536
C         43.88235        46.70854         1.22710
C         43.89134        48.21819         0.95057
C         47.53533        27.37615        -0.86691
C         46.58556        26.89658        -0.24179
C         47.57202        28.72510        -1.57406
C         46.22885        29.47354        -1.11973
C         47.56005        31.70349        -0.97061
C         46.20225        31.03095        -1.15377
C         47.58331        33.07366        -0.73821
C         46.37477        33.82019        -0.54863
C         47.68192        36.03499        -0.70201
C         46.32476        35.32712        -0.79800
C         47.70343        37.56128        -0.55789
C         46.56281        38.17453         0.23675
C         47.89923        40.34289        -0.13418
C         46.50473        39.70911         0.25691
C         47.82829        41.82457         0.21994
C         46.49444        42.50593         0.31387
C         47.75345        44.55149         1.22460
C         46.42040        43.73398         1.21867
C         47.44412        45.83875         1.51954
C         46.36703        46.50708         1.80979
C         50.10748        28.96714        -1.71362
C         48.81549        29.48592        -1.12224
C         50.09872        31.69475        -1.27064
C         48.75894        30.99077        -1.56369
C         50.02790        33.20773        -1.45238
C         48.93275        33.73941        -0.46976
C         50.23291        35.92720        -0.14400
C         48.94474        35.25586        -0.59747
C         50.22853        37.45827        -0.28753
C         49.06319        38.13467        -0.14519
C         50.30934        40.21182         0.68001
C         48.99694        39.50566         0.55083
C         50.37851        41.70971         0.63357
C         49.01754        42.40958         0.98604
C         50.33003        44.36482         1.43877
C         49.05224        43.97348         0.73122
C         51.10677        29.61289        -2.06092
C         52.46106        31.87140        -2.02155
C         51.37479        30.99596        -2.47206
C         52.45276        33.07244        -1.69225
C         51.38540        33.91310        -1.20503
C         52.55550        36.08200        -0.57651
C         51.45171        35.18137        -0.72536
C         52.66336        37.26122        -0.21164
C         51.55894        38.28809        -0.29576
C         52.67883        40.25252         0.95983
C         51.53178        39.30701         0.85321
C         52.75300        41.47304         1.13075
C         51.58008        42.28440         1.59676
C         51.40913        43.75558         1.47689
O         37.08873        28.60020         2.79187
O         46.22172        37.66981         1.54360
O         34.61398        40.08855        -1.66938
O         33.71495        34.34315         1.78608
O         45.77997        40.56787        -1.89619
O         48.48878        35.70416        -1.90093
O         41.75656        34.21276         1.99886
O         37.31880        32.28023         2.49314
O         39.53410        39.61988        -1.40398
O         42.60108        28.00631        -1.12256
O         35.90204        38.26643         2.00313
O         32.72486        42.06289         0.35613
O         39.16811        26.80222         0.14264
O         40.75429        46.41825         1.79655
O         39.25823        30.07995         2.73739
O         34.87174        31.23959        -1.69537
O         47.31985        42.63822        -0.88656
O         43.75007        44.37419        -1.07891
O         45.08637        28.97166        -1.90125
O         37.24699        30.07957        -0.59727
O         43.42834        36.03284         2.25562
H         43.10031        35.21608         2.70039
O         36.70517        33.73148        -0.75947
H         35.93476        34.13496        -1.21391
O         31.12207        34.01737         1.60625
H         30.83401        33.25019         2.14071
O         48.86055        29.43184         0.30562
H         48.84823        28.48357         0.56836
O         45.74456        31.39599        -2.47508
H         45.07388        30.72263        -2.74110
O         51.63280        39.00794        -1.50543
H         51.78384        38.38548        -2.24556
O         44.97701        41.60663        -2.50868
H         45.49209        42.42958        -2.30777
O         45.87430        35.53607        -2.15757
H         46.64947        35.36099        -2.74024
O         38.08090        46.27509        -2.05900
H         37.36119        45.78497        -2.51817
O         41.07956        31.79008         2.49408
H         40.83171        31.01698         3.05813
O         50.76657        42.07487        -0.70117
H         50.19897        41.58174        -1.33469
O         48.54728        31.02328        -2.99606
H         47.57831        31.11431        -3.16736
O         44.03048        38.81694        -1.84324
H         44.79748        39.17312        -2.35892
O         34.81990        30.79582         1.91190
H         35.38628        31.15985         2.63032
O         46.19103        43.21983         2.54591
H         46.17702        43.97732         3.16770
O         33.97825        30.71509        -2.72303
H         34.51605        30.85479        -3.53988
O         40.25018        37.05655        -1.07382
H         40.23081        37.91758        -1.56658
O         51.05100        31.25216        -3.79170
H         50.25950        30.71772        -4.02982
O         43.05770        46.78350        -1.07356
H         43.72451        46.21558        -1.52363
O         37.57824        37.13616        -0.99634
H         38.44495        36.77502        -1.32195
O         51.39070        38.54826         2.07494
H         51.60916        39.14485         2.82336
O         46.23446        40.12325         1.60303
H         46.78098        39.58163         2.21857
O         45.89535        31.42913         1.21608
H         46.64554        32.06030         1.29498
O         39.61607        32.81383        -0.67405
H         40.36049        32.86042        -1.32459
O         47.42809        38.03344        -1.90296
H         48.08064        37.60136        -2.49864
O         40.82324        30.73587        -1.03228
H         41.45105        30.23376        -1.59544
O         32.78299        34.30930        -1.55573
H         32.94776        35.03318        -2.20104
O         48.71675        42.18600         2.36302
H         49.54159        42.26417         2.89822
O         49.21811        33.36387         0.88214
H         49.82065        34.02996         1.29366
O         42.42764        40.71683        -1.83720
H         42.73706        39.97602        -2.41366
O         33.32653        37.37143        -2.40678
H         33.26908        37.93051        -3.21266
O         42.21405        33.20576        -1.54631
H         42.42565        34.14187        -1.81044
O         49.20891        44.25340        -0.64771
H         49.10938        45.21698        -0.78835
O         48.61767        39.14562         1.91533
H         49.37905        38.64566         2.29581
O         50.31843        35.76173         1.30231
H         51.11612        36.24993         1.61152
O         31.64605        37.76051         0.81922
H         31.77898        37.34850         1.69783
O         43.39593        46.49733         2.54468
H         44.06143        46.84069         3.17708
O         42.50038        41.30467         1.70616
H         42.13829        42.08202         2.18201
O         41.27685        25.49748        -0.74283
H         40.30435        25.36832        -0.82175
O         40.30381        43.98043         1.69449
H         39.57919        44.34779         2.24347
O         36.32948        43.89658        -2.13159
H         37.06969        43.32982        -2.46889
O         38.00605        42.02215         1.50096
H         37.35331        41.51282         2.02733
O         48.29740        40.30134        -1.51230
H         47.72115        40.92811        -2.00913
O         45.75136        35.28257         1.43794
H         45.22101        35.69116         2.16636
O         39.36150        33.91795         2.83144
H         39.97513        33.17402         3.06395
O         49.60904        33.52522        -2.78073
H         50.15040        32.98977        -3.40777
O         35.19572        44.44299         1.29645
H         34.38880        44.84427         1.68003
O         40.29592        36.44277         2.55349
H         40.34532        35.60160         3.06735
O         37.74518        36.33896         2.61830
H         37.94873        35.50932         3.10481
O         38.73615        42.41503        -2.04356
H         39.54094        42.79395        -2.46561
O         47.53733        28.58201        -2.96230
H         46.68083        28.16567        -3.20086
O         37.65038        26.25281         4.33018
H         36.80955        26.75153         4.37993
O         39.00440        35.09470        -0.60007
H         38.23561        34.53836        -0.88704
O         43.37263        35.69858        -1.38723
H         44.13216        35.69761        -2.02363
O         50.59965        31.43314        -0.00684
H         50.26436        30.56916         0.33122
O         41.21876        44.17074        -1.77446
H         42.07884        44.01666        -2.22794
O         44.33598        29.30496         1.76269
H         45.00829        29.99526         1.98517
O         30.90838        39.51526        -0.80210
H         30.74166        40.47861        -0.74953
O         51.32911        41.90754         2.94454
H         51.93933        42.40531         3.52801
O         39.01745        38.64885         2.05380
H         38.91001        37.85850         2.63928
