         720
 CSIRO Nanostructure Databank - Neutral Graphene Oxide Data Set
C         23.00883        27.22547         0.00850
C         23.02165        28.59845         0.21312
C         23.13802        31.51598         0.91443
C         23.25416        32.83339         1.23030
C         23.27985        35.76698         1.31897
C         23.23648        37.15453         1.13909
C         23.04526        40.04207         0.46242
C         23.00986        41.37688         0.32748
C         23.27949        44.68563         2.50428
C         23.26618        46.01834         2.09654
C         25.33538        24.42304        -0.84290
C         24.18625        25.12408        -0.62158
C         25.35375        27.30655        -0.64202
C         24.17775        26.56331        -0.42388
C         25.36239        28.71951        -0.49401
C         24.17724        29.36144        -0.04301
C         25.48268        31.60111        -0.07151
C         24.14510        30.83790         0.09322
C         25.59248        32.93403         0.52778
C         24.46177        33.59476         0.99140
C         25.68847        35.77526         1.00868
C         24.48488        35.04744         1.18273
C         25.65499        37.20636         0.86102
C         24.38789        37.88652         0.85963
C         25.53620        40.12710         0.64175
C         24.33823        39.28643         0.26190
C         25.51560        41.48893         0.57950
C         24.25848        42.15348         0.11236
C         25.54045        44.40719         1.57416
C         24.41391        43.89094         2.27139
C         25.54996        45.79467         1.25890
C         24.40040        46.59495         1.50083
C         25.52489        48.60901         0.65551
C         24.45020        48.02179         1.21818
C         27.94340        22.96138        -0.83410
C         27.82552        24.39714        -0.79206
C         26.61973        25.08249        -0.88197
C         27.83368        27.31742        -0.67078
C         26.57767        26.58153        -1.16421
C         27.80968        28.74857        -1.15486
C         26.60048        29.48832        -0.66776
C         28.06897        31.45821        -0.15244
C         26.69714        30.81506        -0.34568
C         28.05882        32.97225        -0.09692
C         26.92019        33.56449         0.61540
C         28.22961        35.79583         0.62768
C         26.96428        35.05444         0.94595
C         28.14618        37.29949         0.56093
C         26.83985        37.95142         0.69245
C         27.91517        40.17028         0.09484
C         26.84690        39.43715         0.92628
C         28.00513        41.60152         0.59700
C         26.74146        42.27598         0.86183
C         27.99990        44.37006         1.35827
C         26.72579        43.61382         1.24834
C         27.98125        45.81629         1.04620
C         26.77158        46.44101         0.82549
C         28.00491        48.57205         0.29598
C         26.70900        47.80103         0.17262
C         28.06513        49.88285        -0.33360
C         30.41075        23.05713        -0.73352
C         29.15795        22.33063        -0.80008
C         30.38557        24.42405        -0.65582
C         29.09161        25.15545        -0.42158
C         30.35167        27.34991        -0.90191
C         29.10678        26.53371        -1.09982
C         30.44044        28.65220        -1.64669
C         29.07171        29.47625        -1.47318
C         30.00145        31.78594        -1.65073
C         29.06307        30.93587        -1.15132
C         30.27550        33.12207        -1.16698
C         29.19555        33.74137        -0.43924
C         30.45132        35.87377        -0.53434
C         29.31623        35.13595        -0.11503
C         30.45613        37.34072        -0.43800
C         29.28220        38.02852        -0.04516
C         30.40249        40.17169        -0.22142
C         29.23389        39.43693         0.00380
C         30.46893        41.54871         0.31917
C         29.22008        42.23028         0.71071
C         30.53329        44.43698         0.81771
C         29.31328        43.64025         1.13141
C         30.45533        45.88180         0.97295
C         29.23243        46.54972         0.98410
C         30.36594        48.84149         0.94430
C         29.14312        48.00092         0.81676
C         30.22714        50.35601         0.75293
C         29.14798        50.68502        -0.24685
C         33.15955        20.38882        -0.99362
C         31.91647        20.96377        -1.04057
C         32.95393        23.10247        -0.20546
C         31.69797        22.31820        -0.52970
C         32.94017        24.58319        -0.38547
C         31.61640        25.25481        -0.62044
C         32.83787        27.43878        -0.36275
C         31.51378        26.72068        -0.19460
C         32.85108        28.81458        -0.70319
C         31.69971        29.42084        -1.29718
C         32.90785        31.56806        -1.43709
C         31.86304        30.70230        -1.80163
C         32.76297        33.02433        -1.78071
C         31.50808        33.78952        -1.38868
C         32.73748        35.99062        -1.55041
C         31.56684        35.18888        -1.11142
C         32.80397        37.45495        -1.27894
C         31.59083        38.11570        -0.84804
C         32.70020        40.36443        -1.15253
C         31.56092        39.52960        -0.70437
C         32.68877        41.88532        -0.92185
C         31.72016        42.34391         0.15866
C         33.06661        44.41491         0.58407
C         31.68654        43.81153         0.40358
C         33.03264        45.95091         0.67225
C         31.73034        46.64083         0.94837
C         32.84060        48.85051         0.21627
C         31.68012        48.14128         0.84329
C         32.78629        50.34704         0.10494
C         31.55470        51.06845         0.50582
C         32.84373        53.14783         0.49605
C         31.61717        52.42341         0.64590
C         35.64346        18.90106        -0.28035
C         35.68353        20.38182        -0.56094
C         34.33286        21.07529        -0.54673
C         35.41534        23.25084         0.05271
C         34.28195        22.45287        -0.26875
C         35.32088        24.65130         0.28811
C         34.11378        25.34780         0.05934
C         35.24974        27.54758         0.09896
C         34.05217        26.78506        -0.03954
C         35.26269        28.91918        -0.17826
C         34.06862        29.56983        -0.62410
C         35.31229        31.71948        -0.85279
C         34.08584        30.96473        -0.95363
C         35.39869        33.05002        -1.61139
C         34.06211        33.76220        -1.91155
C         35.34657        36.02666        -2.06326
C         34.00663        35.27750        -1.96678
C         35.26010        37.50006        -1.67292
C         33.98878        38.15961        -1.48271
C         35.25755        40.40022        -1.38972
C         33.98488        39.64594        -1.48256
C         35.27105        41.80021        -1.16737
C         34.06385        42.52755        -0.77666
C         35.42920        44.54322        -0.31548
C         34.14457        43.81212        -0.30259
C         35.41476        46.04299        -0.14775
C         34.16474        46.76854         0.14910
C         35.34139        48.93962        -0.20090
C         34.14160        48.14002         0.09558
C         35.26625        50.39629        -0.11143
C         34.08105        51.08122         0.06817
C         35.31646        53.27554         0.29566
C         34.05233        52.52863         0.24634
C         35.36453        54.66076         0.56895
C         37.85717        18.87801         0.82412
C         36.66431        18.23349         0.30215
C         37.79013        20.34542         0.98330
C         36.62591        21.09850         0.39484
C         37.58646        23.27076         1.30507
C         36.78212        22.60014         0.17300
C         37.68197        24.76449         0.99890
C         36.53175        25.40394         0.62450
C         37.75080        27.62332         0.51827
C         36.43740        26.90900         0.77618
C         37.69555        29.04753         0.25821
C         36.49059        29.69090        -0.03173
C         37.68639        31.90029        -0.13119
C         36.44535        31.11120        -0.33833
C         37.68389        33.36905        -0.51245
C         36.45531        33.97620        -1.05683
C         37.71000        36.04745        -1.28344
C         36.47576        35.32778        -1.32305
C         37.73286        37.54046        -1.22195
C         36.43388        38.22226        -1.58105
C         37.71444        40.34655        -1.51349
C         36.46494        39.66558        -1.47942
C         37.70954        41.75158        -1.41764
C         36.52448        42.47901        -1.18782
C         37.77827        44.62936        -1.09051
C         36.61212        43.90976        -0.94840
C         37.79879        46.11546        -1.05184
C         36.52646        46.84197        -0.73961
C         37.82184        49.01872        -0.81250
C         36.52876        48.29660        -0.49779
C         37.78639        50.38651        -0.19399
C         36.52649        51.18536        -0.41200
C         37.75567        53.24689         0.42582
C         36.54147        52.58072         0.17694
C         37.80065        54.63878         0.69062
C         36.57125        55.33311         0.71433
C         40.22480        16.05560         1.33330
C         39.06364        16.74413         1.14120
C         40.16177        18.90837         1.79349
C         38.97886        18.18308         1.23968
C         40.21577        20.43383         1.75592
C         38.97935        21.11969         1.32811
C         40.29529        23.32072         1.52189
C         38.90525        22.53951         1.52186
C         40.26225        24.81489         1.31983
C         38.92936        25.53917         1.19667
C         40.26110        27.68033         0.90102
C         38.93366        26.95618         0.75070
C         40.21807        29.05107         0.28073
C         38.96166        29.83762         0.52524
C         40.17951        31.87916        -0.28700
C         38.96983        31.20674        -0.09503
C         40.20071        33.29793        -0.67128
C         38.96553        33.99450        -0.86214
C         40.14084        36.00824        -1.76386
C         38.92435        35.34370        -1.26903
C         40.15087        37.47700        -1.92582
C         38.97791        38.18766        -1.78985
C         40.17552        40.31176        -1.82784
C         38.97101        39.63211        -1.76960
C         40.20787        41.70534        -1.35260
C         38.97518        42.48631        -1.60411
C         40.36991        44.72028        -1.38218
C         39.02924        43.97488        -1.51966
C         40.23317        46.03044        -0.63612
C         39.08174        46.78957        -0.72149
C         40.23929        48.85720        -0.08439
C         39.06742        48.21397        -0.43344
C         40.34664        50.33646        -0.05197
C         39.04275        51.10313        -0.08724
C         40.25585        53.05308         1.05736
C         38.99007        52.43472         0.57939
C         40.27917        54.53840         1.26329
C         39.07856        55.32369         0.92630
C         40.46057        57.36261         0.81619
C         39.20509        56.70304         0.83821
C         42.68218        16.05663         1.48228
C         41.47538        16.72439         1.57627
C         42.78580        18.95489         1.63270
C         41.45733        18.16362         1.86209
C         42.68142        20.38841         1.29382
C         41.52152        21.12845         1.49611
C         42.67131        23.27519         0.82569
C         41.50485        22.56402         1.22998
C         42.65758        24.65937         0.56502
C         41.48877        25.47449         0.78400
C         42.66417        27.55504         0.10293
C         41.47059        26.84728         0.51608
C         42.62393        28.92307        -0.21122
C         41.38519        29.68214        -0.11847
C         42.66347        31.80979        -0.32130
C         41.38840        31.11870        -0.29111
C         42.68396        33.32364        -0.58648
C         41.41412        33.96794        -0.89246
C         42.68972        36.08360        -1.56505
C         41.45183        35.27226        -1.58509
C         42.71864        37.41928        -1.91290
C         41.44480        38.12644        -2.22647
C         42.71474        40.36852        -1.82015
C         41.44912        39.66829        -2.13665
C         42.74973        41.65496        -1.31995
C         41.48647        42.38635        -1.04241
C         42.64105        44.40708        -0.29949
C         41.51886        43.86197        -0.85709
C         42.72221        45.83197         0.01309
C         41.42792        46.57659         0.00825
C         42.74443        48.74549         0.35953
C         41.41474        48.06338         0.31273
C         42.76698        50.18475         0.71598
C         41.55713        50.99361         0.53242
C         42.79073        52.99296         1.45099
C         41.53770        52.31539         0.90042
C         42.88658        54.46300         1.09694
C         41.65062        55.24782         1.24910
C         42.93790        57.27489         0.63494
C         41.66216        56.67297         0.89915
C         43.90256        16.77096         1.32863
C         45.21252        18.78038         0.73313
C         43.95078        18.14252         1.25477
C         45.11178        20.26677         0.59013
C         43.82269        21.03944         0.53071
C         45.16119        23.15128         0.23151
C         43.99228        22.52117         0.96023
C         45.20155        24.61544        -0.07006
C         43.87906        25.35227         0.06632
C         45.14294        27.47592         0.01336
C         43.91660        26.82596         0.08902
C         45.16302        28.89421        -0.38235
C         43.86617        29.60007        -0.64644
C         45.14645        31.84445        -0.76733
C         43.84420        31.09810        -0.94448
C         45.16217        33.23586        -1.00317
C         43.93346        33.92972        -1.06490
C         45.23435        36.07650        -1.49388
C         43.92438        35.38708        -1.19385
C         45.19528        37.47242        -1.94544
C         43.98047        38.14750        -2.00293
C         45.25427        40.35344        -1.66787
C         43.96863        39.63600        -2.07435
C         45.20099        41.67217        -1.00194
C         43.97038        42.30179        -0.89956
C         45.11920        44.18477         0.40324
C         43.84922        43.55213        -0.11512
C         45.06658        45.61216         0.95350
C         43.88040        46.42555         0.44626
C         45.19812        48.55507         1.05925
C         44.00085        47.91004         0.52416
C         45.12831        49.97064         1.57676
C         43.94493        50.76036         1.07961
C         45.31412        52.90764         0.81055
C         43.99987        52.23346         0.96841
C         45.36611        54.37876         0.87606
C         44.10080        55.10814         0.86821
C         44.09114        56.54036         0.64208
C         47.53636        19.24238         1.58161
C         46.42325        18.48402         1.60723
C         47.70428        20.41997         0.68767
C         46.31536        20.93691         0.15809
C         48.01909        23.47070         0.06052
C         46.15695        22.34627        -0.20089
C         47.73540        24.76989         0.39180
C         46.46403        25.40315         0.09701
C         47.66327        27.57579         0.17266
C         46.40836        26.79715         0.12231
C         47.68652        28.95432        -0.11374
C         46.40440        29.68258        -0.15753
C         47.68005        31.73474        -0.96135
C         46.39366        31.15399        -0.41674
C         47.68394        33.23649        -1.01139
C         46.42942        33.94398        -1.25279
C         47.67874        35.90869        -2.24963
C         46.44181        35.26682        -1.64502
C         47.70099        37.45343        -2.04347
C         46.49267        38.12942        -1.93797
C         47.73519        40.23729        -1.13140
C         46.45261        39.51279        -1.42358
C         47.70814        41.68478        -0.82800
C         46.42909        42.30722        -0.54530
C         47.65208        44.26725         0.36076
C         46.41438        43.58726         0.01080
C         47.62599        45.56522         0.83640
C         46.37650        46.40179         0.70871
C         47.68166        48.45838         1.30602
C         46.37715        47.72394         1.52460
C         47.79221        49.90245         1.43811
C         46.46927        50.73820         1.47692
C         47.78344        52.76369         0.82672
C         46.54278        52.11431         0.99000
C         47.79623        54.17759         0.73925
C         46.63007        54.96016         0.83367
C         50.07778        20.61789         1.41395
C         48.94229        21.26339         0.88928
C         50.16733        23.39698         1.20598
C         49.04233        22.67234         0.70704
C         50.13576        24.84702         1.14164
C         48.79705        25.55255         1.11746
C         50.09743        27.65728         0.56595
C         48.87132        26.95045         0.56000
C         50.13231        29.03384         0.18481
C         48.90776        29.69821        -0.11535
C         50.13067        31.81184        -0.34681
C         48.92684        31.09684        -0.40285
C         50.14637        33.32668        -0.43589
C         48.86053        33.93533        -0.98074
C         50.13199        35.63561        -2.08203
C         48.90970        35.22431        -1.65967
C         50.21256        37.74102        -2.47436
C         48.92749        38.26693        -2.04877
C         50.16601        40.41639        -1.74956
C         48.94516        39.59574        -1.63110
C         50.16188        41.87770        -1.28869
C         48.90115        42.33334        -0.58635
C         50.15360        44.14349         0.49362
C         48.92681        43.59359         0.10659
C         50.15007        45.41586         1.26835
C         48.81464        46.14565         1.55873
C         50.23414        48.41310         1.24362
C         48.91474        47.67952         1.43570
C         50.20196        49.81876         0.75768
C         49.02263        50.57676         0.95542
C         50.18721        52.54521         0.16079
C         49.01463        51.96910         0.68872
C         51.23947        21.31316         1.76273
C         52.50683        23.47641         2.21653
C         51.30477        22.70869         1.68131
C         52.54447        24.93370         1.74115
C         51.30205        25.58445         1.24019
C         52.55172        27.67663         0.70907
C         51.32464        26.99276         0.91277
C         52.60373        29.03112         0.31976
C         51.36746        29.75450         0.14805
C         52.62777        31.94604         0.09347
C         51.35311        31.15067        -0.08356
C         52.67417        33.22934        -0.71185
C         51.38884        33.79087        -1.23941
C         52.65181        35.92349        -2.00495
C         51.40467        35.33846        -1.34432
C         52.71681        37.44751        -2.39519
C         51.43542        38.22032        -2.08315
C         52.72859        40.30007        -1.37796
C         51.48183        39.66740        -1.83456
C         52.70664        41.63287        -0.88884
C         51.44590        42.32208        -0.62097
C         52.66625        44.21205         0.35103
C         51.40962        43.53218         0.07213
C         52.67465        45.45130         0.90093
C         51.45135        46.16908         1.31582
C         52.61726        48.24647         0.61655
C         51.49244        47.64237         1.08512
C         52.57716        49.56203        -0.13070
C         51.35779        50.40884         0.20438
C         51.31711        51.77745        -0.10434
C         54.98967        23.38192         1.69755
C         53.81881        22.77367         1.91468
C         55.19591        24.88102         1.64422
C         53.85495        25.60710         1.45280
C         55.06200        27.51745         0.18429
C         53.78537        26.85914         0.62844
C         55.09649        28.98450         0.08669
C         53.87017        29.71337         0.09233
C         55.09897        31.80481        -0.33758
C         53.87982        31.12417        -0.06995
C         55.10089        33.15821        -0.74681
C         53.86704        33.85578        -1.00014
C         55.25087        35.92182        -1.89034
C         53.91772        35.16809        -1.75024
C         55.16352        37.44909        -1.76871
C         53.95226        38.15551        -1.85478
C         55.17069        40.27171        -1.38212
C         53.93852        39.57661        -1.55029
C         55.16486        41.58671        -0.88677
C         53.95150        42.25419        -0.60513
C         55.17336        44.13964         0.57276
C         53.96723        43.71601        -0.23552
C         55.19942        45.45042         1.07116
C         53.90552        46.19621         1.28904
C         55.10936        48.39866         1.01477
C         53.94065        47.51060         0.48711
C         55.05549        49.74569         0.32468
C         53.90142        50.30398        -0.06457
C         57.60263        24.66587         0.93725
C         56.25812        25.24566         0.56608
C         57.57603        27.56456         0.71162
C         56.34811        26.75922         0.33186
C         57.48689        29.03557         0.75734
C         56.35261        29.67249         0.20887
C         57.52314        31.68913        -0.59200
C         56.35359        31.07923        -0.19905
C         57.65166        33.11779        -0.90591
C         56.35097        33.87838        -1.03308
C         57.61536        36.07186        -1.04037
C         56.26794        35.39207        -0.84502
C         57.62037        37.35567        -1.79494
C         56.40992        38.12941        -1.78222
C         57.69135        40.35547        -1.64625
C         56.40259        39.64081        -2.00649
C         57.69195        41.43095        -0.58339
C         56.46347        42.36276        -0.75514
C         57.72849        44.03894         0.76198
C         56.42344        43.39699         0.36930
C         57.70038        45.44303         1.38481
C         56.39983        46.17235         1.16652
C         57.63369        48.32657         1.43937
C         56.44263        47.64988         0.81208
C         58.68387        25.41057         1.30997
C         59.77311        27.58219         1.85959
C         58.68688        26.83607         1.33428
C         59.75798        28.94903         1.90847
C         58.55966        29.79169         1.55634
C         59.48114        32.20656         1.36858
C         58.99800        31.05009         0.84477
C         59.60879        33.45402         0.63100
C         58.83071        33.86412        -0.41523
C         60.05087        35.73697        -1.68483
C         58.89999        35.28895        -0.88900
C         59.99286        36.90141        -2.39321
C         58.82426        37.73133        -2.39090
C         60.10490        40.68896        -2.01953
C         58.86595        40.01686        -2.25270
C         60.13052        41.79917        -1.20235
C         58.96673        42.27382        -0.54509
C         60.10373        44.36959         0.14987
C         58.97565        43.53415         0.11739
C         60.07240        45.70000         0.62605
C         58.91372        46.28911         1.08986
C         58.82532        47.68107         1.46405
O         57.09412        43.04937         1.65342
O         31.20378        48.65038         2.13986
O         39.61609        22.93738         2.74158
O         32.49493        25.00633        -1.74802
O         33.37231        33.23764        -3.09242
O         47.27421        20.17815        -0.68287
O         42.87295        32.73740         0.76638
O         58.42136        36.20022         0.18233
O         27.19729        34.05537         1.99135
O         41.48406        38.95406        -3.41668
O         28.63539        36.59954         1.78991
O         30.86354        31.25035        -2.62398
O         32.13380        22.55363         0.87262
O         40.93021        54.93655         2.51115
O         41.15880        47.10330         1.37183
O         32.66586        46.31720         2.05157
O         28.14736        29.05117        -2.54037
O         47.23254        22.86433        -0.92859
O         53.19499        25.81229         2.74888
O         50.93667        45.51463         2.52627
O         47.25987        50.50852         2.67683
O         57.30586        27.07453        -0.69029
O         50.87069        40.33980        -3.03119
O         54.14408        47.16915        -0.88562
O         39.91559        50.99967        -1.30640
O         50.20027        36.51893        -3.17231
O         46.35764        30.65465         0.96626
O         58.91585        38.91036        -3.14591
O         24.48196        31.53570        -1.14364
O         42.28360        18.59461         2.96352
O         46.98718        39.53411        -0.06165
O         44.69120        36.02332        -0.10718
O         39.95329        19.69643         3.00649
O         44.38761        24.89664        -1.25660
O         39.62878        25.42919         2.50489
O         33.07280        40.12642        -2.55357
O         35.81740        45.17520         0.96493
O         40.67567        41.77455         0.05377
O         54.20616        26.77633        -0.76928
O         38.96387        43.30012        -2.83451
O         57.11814        33.49535        -2.22026
O         31.56125        41.54837         1.35669
O         44.29908        43.31395         1.26746
O         36.54129        20.71703         1.76734
O         53.20608        35.07299        -3.04983
O         40.75809        35.28725        -2.88295
O         44.60861        28.96574        -1.75679
O         37.56289        32.94928         0.90203
O         44.43942        52.54473        -0.39412
O         35.75598        35.92621        -3.40245
O         24.25076        43.25107        -0.43460
O         32.51375        49.47884        -1.07626
O         36.92491        46.59718        -2.14230
O         44.83719        40.28614        -3.06372
O         43.55905        48.49998        -0.82202
O         49.68396        48.25320         2.59019
O         39.36331        52.34945         2.00925
O         33.06749        35.71826        -2.96554
O         58.74187        30.98965        -0.54322
O         28.83293        43.94326         2.48516
O         52.35565        23.48617         3.66011
H         52.78435        24.31023         3.98501
O         55.79951        35.63356        -3.18479
H         55.04570        35.60717        -3.81684
O         50.26832        33.80356         0.93710
H         51.01912        33.30673         1.36365
O         51.19457        33.28235        -2.58439
H         51.95863        33.60646        -3.12256
O         55.00349        48.65761         2.42797
H         54.05948        48.78258         2.65965
O         53.77806        46.47774         2.70543
H         53.16660        45.82247         3.10404
O         54.18637        44.46680        -1.48940
H         54.11212        45.46484        -1.29058
O         29.03163        25.27992         1.03824
H         29.28829        24.41696         1.42776
O         36.17042        27.11466         2.20745
H         36.89757        26.69131         2.71262
O         57.73109        45.26383         2.83769
H         57.22766        44.43701         3.02694
O         46.30234        47.53172         2.96160
H         45.88897        46.65318         3.15210
O         56.22304        39.80599        -3.44875
H         57.02285        39.43072        -3.88245
O         47.63760        31.32546        -2.37491
H         48.41509        31.71757        -2.82807
O         37.54825        22.81228        -1.03542
H         37.14936        22.24807        -1.74118
O         44.31678        22.54555         2.37321
H         43.55136        22.18733         2.87257
O         27.41197        40.19643        -1.26791
H         28.04763        40.68987        -1.82666
O         33.45690        43.91815         1.89427
H         33.12631        44.57198         2.55637
O         28.53011        31.03957         1.18420
H         28.08689        31.60972         1.84978
O         35.96316        32.68281        -2.90566
H         35.83862        33.45482        -3.50633
O         52.58432        32.39354         1.52869
H         53.41444        32.89027         1.69986
O         26.51968        26.71112        -2.60953
H         25.70806        26.25768        -2.91821
O         55.75072        25.33360         2.89754
H         55.00720        25.37402         3.54115
O         24.41544        42.63113         2.78604
H         25.31139        42.23815         2.72303
O         24.44332        39.06445        -1.18396
H         23.65050        38.56382        -1.46956
O         47.61063        35.65682        -3.67566
H         48.46293        35.96041        -4.06230
O         27.75553        27.48113         0.75338
H         27.94262        26.62010         1.19924
O         36.49354        51.44081        -1.86500
H         36.71234        50.58486        -2.31849
O         37.82867        37.82310         0.23489
H         38.59466        37.32726         0.59563
O         45.44833        18.20111        -0.59414
H         46.25623        18.65008        -0.95050
O         42.74769        52.89265         2.89261
H         42.00138        53.46393         3.19974
O         48.49447        45.88567         2.94780
H         49.18595        46.34093         3.48125
O         56.65290        43.11639        -1.97220
H         55.82581        43.64143        -2.12716
O         50.11541        42.69165        -2.50975
H         50.66544        42.21468        -3.17766
O         43.42773        21.06692        -0.88023
H         43.61976        20.18646        -1.26822
O         46.35258        46.85626        -0.67405
H         46.47166        46.08716        -1.27013
O         57.55542        40.68974         0.65760
H         57.54732        41.34289         1.39978
O         31.24569        26.68639         1.24812
H         30.96054        27.57990         1.53323
O         36.84315        23.16873         2.53209
H         37.48173        23.22884         3.27516
O         44.85810        45.48709         2.37987
H         44.36544        44.64026         2.52085
O         57.94213        30.22289         2.81328
H         57.82005        29.43057         3.37741
O         48.38660        25.66792         2.52363
H         49.05348        26.21869         2.98572
O         52.88255        37.48492        -3.83216
H         52.09014        37.06270        -4.23017
O         29.72783        50.85452         2.02715
H         30.23240        50.38369         2.72832
O         37.90784        49.20522        -2.27462
H         38.73117        49.72935        -2.42905
O         26.50088        47.56893        -1.26156
H         25.66405        47.06568        -1.35586
O         38.91298        30.12809         1.97316
H         39.43548        29.41808         2.43069
O         30.52710        28.38480        -3.07431
H         30.48588        29.25646        -3.52904
O         52.43730        49.14413        -1.52040
H         53.09730        48.39032        -1.61834
O         32.11997        42.46846        -2.13059
H         32.49266        41.95689        -2.88779
O         40.41708        27.93854         2.35405
H         40.24939        27.06911         2.80618
O         55.77179        35.68087         0.47198
H         56.54479        35.94128         1.02353
O         29.02361        26.22464        -2.50709
H         29.06900        27.07053        -3.01672
O         44.83782        49.80197         2.99876
H         45.55997        49.23822         3.37857
O         27.15339        39.61383         2.33730
H         27.87993        38.99872         2.57748
O         43.53959        31.20612        -2.37370
H         44.07529        30.51264        -2.82718
O         51.34756        35.97785        -0.05221
H         50.80717        35.40304         0.55655
O         55.81417        24.63784        -0.66147
H         56.28242        25.08228        -1.40057
O         40.79551        45.09466        -2.72300
H         40.30584        44.51531        -3.35520
O         36.25147        20.56413        -1.90486
H         35.61705        20.19154        -2.55347
O         56.70435        47.55034        -0.61430
H         55.79213        47.39822        -1.03367
H         22.08926        26.64915         0.18270
H         22.10039        29.09644         0.54499
H         22.27517        30.94673         1.28817
H         22.44696        33.30520         1.80784
H         22.33315        35.23488         1.47860
H         22.25487        37.64723         1.17133
H         22.10439        39.48046         0.57208
H         22.05521        41.92256         0.34945
H         22.41907        44.25143         3.02920
H         22.38062        46.64118         2.28774
H         25.28776        23.32557        -0.89618
H         23.22999        24.58857        -0.52780
H         25.52328        49.69051         0.45521
H         23.57688        48.62776         1.50489
H         27.03682        22.35048        -0.95190
H         27.22396        50.16226        -0.98493
H         29.19385        21.23310        -0.84928
H         29.19108        51.64142        -0.78742
H         33.26657        19.35922        -1.36592
H         31.08343        20.42379        -1.51218
H         32.80088        54.23543         0.64188
H         30.70939        52.98018         0.91813
H         34.77760        18.32435        -0.63682
H         34.43530        55.23963         0.65638
H         36.57713        17.14219         0.40223
H         36.55270        56.41328         0.91282
H         40.23554        14.96101         1.22986
H         38.15595        16.18068         0.88786
H         40.47870        58.44341         0.61441
H         38.31302        57.31645         0.64964
H         42.68618        14.96557         1.34701
H         42.97484        58.35371         0.42469
H         44.81076        16.19897         1.09132
H         45.04430        57.04650         0.43782
H         48.33993        19.01402         2.29731
H         46.36732        17.63153         2.30122
H         48.75693        54.70393         0.66257
H         46.74128        56.05332         0.84913
H         50.07983        19.52654         1.53544
H         50.20866        53.61393        -0.09140
H         52.08940        20.73902         2.15482
H         52.18943        52.26585        -0.55820
H         55.88751        22.75913         1.56713
H         53.81392        21.67456         1.96983
H         55.99145        50.32328         0.24866
H         53.93172        51.30358        -0.52549
H         57.69461        23.57102         0.90498
H         57.54984        49.37453         1.76070
H         59.60500        24.89582         1.62412
H         60.65917        27.03653         2.21770
H         60.63848        29.48687         2.28918
H         59.76469        32.22677         2.43048
H         60.32897        34.18185         1.03751
H         60.92775        35.07882        -1.76276
H         60.84979        37.22565        -2.99941
H         61.01169        40.33893        -2.52840
H         61.08172        42.33654        -1.08858
H         61.05577        44.01298        -0.26455
H         60.98151        46.31037         0.52374
H         59.74810        48.21058         1.74898
