         404
 CSIRO Nanostructure Databank - Neutral Graphene Oxide Data Set
C          1.64466         2.19807         1.70379
C          1.54711         3.57401         1.44644
C          2.78509         1.48560         1.36109
C          2.59799         4.27546         0.83318
C          1.37782         6.47086         0.84937
C          1.29269         7.83838         0.57457
C          2.51821         5.69398         0.52085
C          2.30081         8.52224        -0.11539
C          1.05919        10.69306        -0.26472
C          0.98097        12.03307        -0.60713
C          2.24968         9.92990        -0.42901
C          2.05230        12.68269        -1.27700
C          1.12978        15.07084        -1.22803
C          1.32442        16.47865        -1.40091
C          2.02124        14.09564        -1.63861
C          2.53886        17.17014        -1.44112
C          2.56978        18.61655        -1.38556
C          3.87887         2.13755         0.73974
C          3.78358         3.55195         0.47074
C          5.07107         1.43246         0.44292
C          4.86355         4.22064        -0.13992
C          3.61714         6.33214        -0.11256
C          3.47549         7.74292        -0.53841
C          4.81121         5.61503        -0.39988
C          4.74113         8.50264        -0.90725
C          3.40096        10.60394        -0.94876
C          3.20806        11.88694        -1.49299
C          4.74057         9.98655        -0.89243
C          5.10829        13.01266        -1.35136
C          3.98289        15.16964        -1.66584
C          3.81858        16.50296        -1.30172
C          5.08145        14.39577        -1.18736
C          4.94974        17.19724        -0.73390
C          3.70747        19.30947        -1.08800
C          4.93755        18.64821        -0.69142
C          6.17559         2.05306        -0.16119
C          6.03619         3.45931        -0.60259
C          7.42446         1.41602        -0.25657
C          7.27385         4.21398        -1.06740
C          6.04142         6.31253        -0.71844
C          6.00103         7.78013        -0.57123
C          7.26940         5.67941        -0.87591
C          7.27943         8.53297        -0.51974
C          5.92644        10.67525        -0.74702
C          5.95707        12.15360        -0.55135
C          7.28881        10.00585        -0.86770
C          7.17875        12.87241         0.06634
C          6.15868        15.06264        -0.50958
C          6.10119        16.48086        -0.37365
C          7.29404        14.32550        -0.11165
C          7.26054        17.14973         0.22473
C          6.08440        19.35734        -0.38014
C          7.27723        18.70625         0.17702
C          8.61216         2.08178        -0.63498
C          8.59268         3.46805        -1.26659
C          9.84052         1.43654        -0.53161
C          9.82266         4.27862        -0.91803
C          8.53317         6.40904        -0.83829
C          8.55211         7.80101        -0.68062
C          9.79083         5.69644        -0.88718
C          9.77071         8.55090        -0.56708
C          8.43895        10.62071        -0.07354
C          8.42137        12.07403         0.32614
C          9.74688         9.93961        -0.24409
C          9.71011        12.79400         0.39372
C          8.52611        14.98287         0.17026
C          8.54961        16.43050         0.24730
C          9.69526        14.21244         0.38322
C          9.72395        17.14589         0.43037
C          8.59330        19.33400         0.17638
C          9.76143        18.60021         0.43386
C         11.07257         2.13739        -0.70775
C         11.04173         3.58670        -0.81421
C         12.29445         1.46740        -0.66856
C         12.27321         4.30773        -0.79684
C         11.02348         6.43091        -0.83701
C         11.01960         7.86810        -0.66114
C         12.24964         5.72336        -0.87116
C         12.21563         8.59562        -0.42694
C         10.93642        10.64018         0.05522
C         10.92937        12.05423         0.36190
C         12.19281         9.95420        -0.02435
C         12.17935        12.70756         0.60357
C         10.98264        14.91924         0.44825
C         11.00717        16.42233         0.45920
C         12.14282        14.13856         0.96800
C         12.20742        17.13163         0.91646
C         11.02387        19.24836         0.55987
C         12.23230        18.54433         0.83066
C         13.53692         2.15773        -0.75707
C         13.51960         3.59983        -0.80443
C         14.75730         1.44978        -0.73626
C         14.74256         4.31532        -0.84340
C         13.52241         6.44880        -0.96180
C         13.51713         7.96210        -0.67761
C         14.78212         5.72141        -0.78928
C         14.73791         8.56657        -0.12229
C         13.42567        10.62494         0.30468
C         13.40580        12.02713         0.64259
C         14.64153         9.89659         0.34587
C         14.65198        12.75499         0.88534
C         13.41056        14.87661         1.26979
C         13.39735        16.37931         1.30381
C         14.68556        14.15573         1.07894
C         14.73030        17.10730         1.27137
C         13.49228        19.22831         0.86767
C         14.71399        18.54675         0.92741
C         16.00696         2.10302        -0.86089
C         15.98573         3.56444        -1.06072
C         17.23651         1.43978        -0.82604
C         17.29776         4.33709        -0.94610
C         15.99789         6.44651        -0.55024
C         15.96136         7.82665        -0.12467
C         17.23571         5.75018        -0.54630
C         17.17219         8.41930         0.37406
C         15.83405        10.55786         0.91744
C         15.88679        12.03651         0.91702
C         17.12320         9.77763         0.97742
C         17.12193        12.70300         0.95716
C         15.92196        14.87613         1.04685
C         15.96013        16.31082         1.06194
C         17.15539        14.15052         0.92753
C         17.16368        17.01115         0.88366
C         15.95509        19.18631         0.74583
C         17.17394        18.46371         0.77446
C         18.48996         2.13487        -0.76424
C         18.51657         3.56429        -0.68812
C         19.70862         1.43000        -0.66358
C         19.71303         4.26274        -0.43200
C         18.43464         6.38346        -0.14546
C         18.38358         7.73611         0.31862
C         19.68199         5.67113        -0.18839
C         19.62863         8.25743         1.00538
C         18.38030        10.55307         1.06557
C         18.35597        11.93098         1.02737
C         19.64098         9.77549         1.24432
C         19.63613        12.66922         0.86467
C         18.37132        14.87735         0.82259
C         18.39926        16.29191         0.80069
C         19.64901        14.15329         0.68849
C         19.64360        17.01260         0.71313
C         18.39778        19.13670         0.64538
C         19.63952        18.44593         0.64440
C         20.95197         2.10576        -0.54802
C         20.95939         3.54186        -0.43965
C         22.17942         1.40418        -0.51532
C         22.18068         4.24240        -0.40069
C         20.91543         6.39727        -0.04264
C         20.88999         7.74383         0.32456
C         22.17180         5.69219        -0.26073
C         22.10954         8.54899         0.26209
C         20.94650        10.51957         1.29744
C         20.90610        12.01821         1.30657
C         22.20739         9.88533         0.87566
C         22.17904        12.78206         1.19814
C         20.92507        14.90120         0.81784
C         20.89422        16.32786         0.73594
C         22.14148        14.22828         0.88919
C         22.12096        17.04892         0.69760
C         20.86104        19.15308         0.57737
C         22.10698        18.48600         0.60490
C         23.41712         2.08723        -0.46197
C         23.41198         3.52531        -0.45902
C         24.66200         1.39735        -0.41980
C         24.66032         4.21526        -0.52489
C         23.36828         6.37367        -0.20347
C         23.40990         7.83853        -0.08503
C         24.62923         5.69201        -0.55876
C         24.63100         8.44193         0.58719
C         23.41363        10.62233         0.81817
C         23.43884        12.04508         0.98531
C         24.66912         9.95512         0.55000
C         24.63006        12.77543         0.85943
C         23.38136        14.93169         0.83697
C         23.36547        16.35573         0.73359
C         24.61733        14.22297         0.85805
C         24.59590        17.06996         0.67817
C         23.33546        19.18513         0.53846
C         24.57632        18.50755         0.56726
C         25.89136         2.08176        -0.38413
C         25.86642         3.52095        -0.45490
C         27.14743         1.38611        -0.32715
C         27.16124         4.23087        -0.60121
C         25.91347         6.46596        -0.52796
C         25.95504         7.77293         0.20456
C         27.21009         5.72877        -0.70594
C         27.22536         8.54559         0.18405
C         25.86178        10.66348         0.52443
C         25.87305        12.08821         0.68438
C         27.15987        10.04108         0.05744
C         27.10032        12.80745         0.71323
C         25.84146        14.93595         0.79290
C         25.83146        16.36755         0.71938
C         27.09060        14.23357         0.79347
C         27.06611        17.07819         0.64131
C         25.80517        19.19797         0.46749
C         27.03982        18.51125         0.48606
C         28.38658         2.04062        -0.19091
C         28.37455         3.52231        -0.09065
C         29.62675         1.38575        -0.10648
C         29.66007         4.26479         0.06843
C         28.51111         6.49202        -0.55572
C         28.51560         7.91323        -0.18933
C         29.77508         5.71743        -0.27949
C         29.67447         8.55322         0.24090
C         28.41635        10.70262         0.56507
C         28.36311        12.11485         0.74246
C         29.62511         9.97791         0.60058
C         29.55577        12.84673         0.97016
C         28.31830        14.95570         0.81279
C         28.30611        16.38361         0.70309
C         29.56347        14.26198         0.93278
C         29.54262        17.09361         0.58190
C         28.26179        19.19374         0.30357
C         29.49255        18.50767         0.31073
C         30.87862         2.07542         0.02948
C         30.92195         3.50902         0.12374
C         32.09466         1.36724         0.04597
C         32.12607         4.21745         0.29316
C         30.93806         6.43828         0.26234
C         30.90053         7.81161         0.44407
C         32.13741         5.66120         0.48491
C         32.04428         8.46585         1.19953
C         30.83408        10.64800         0.95332
C         30.77435        12.08184         1.26341
C         32.07549         9.97270         1.03602
C         32.10529        12.86689         1.36006
C         30.81475        14.99426         0.92095
C         30.79948        16.43438         0.67583
C         32.02328        14.30524         1.06233
C         32.02089        17.17086         0.48504
C         30.68721        19.17575        -0.02948
C         31.94345        18.54875         0.00469
C         33.35019         2.04431         0.08254
C         33.36005         3.49125         0.24741
C         34.55890         1.35479         0.00610
C         34.58427         4.16613         0.41164
C         33.32706         6.33999         0.78035
C         33.37145         7.76110         0.97738
C         34.56697         5.56130         0.88440
C         34.58190         8.45540         1.07978
C         33.29226        10.67934         1.12697
C         33.35344        12.10526         1.13109
C         34.56625         9.93141         1.26639
C         34.56497        12.78378         0.85889
C         33.27691        15.03788         0.97313
C         33.25678        16.45596         0.58293
C         34.60438        14.25925         0.83822
C         34.53152        17.03444         0.47304
C         33.01393        19.27085        -0.62668
C         34.36930        19.01537        -0.41177
C         35.83414         2.07774        -0.29806
C         35.82081         3.52775         0.14572
C         37.10282         1.41173         0.18788
C         37.03040         4.24008         0.14835
C         35.87915         6.33072         0.90774
C         35.85427         7.80556         0.89149
C         37.08134         5.62470         0.44865
C         37.06644         8.48394         0.70814
C         35.87208        10.69085         1.11191
C         35.79078        12.09468         0.66387
C         37.21039         9.96405         1.00692
C         36.91031        12.74160         0.09266
C         35.72737        14.91248         0.14104
C         35.69652        16.34974        -0.02390
C         36.81120        14.12760        -0.26244
C         36.72826        17.06245        -0.68557
C         35.49781        19.25472        -1.20011
C         36.69482        18.46476        -1.09039
C         38.27404         2.08988         0.15885
C         38.26550         3.52700        -0.36991
C         39.53839         1.52878         0.62895
C         39.55008         4.22641        -0.04574
C         38.27966         6.35743         0.37448
C         38.28937         7.77259         0.48467
C         39.54077         5.59646         0.37835
C         39.50647         8.49749         0.17653
C         38.23453        10.64336         0.12446
C         38.12963        12.00068        -0.19994
C         39.43140         9.90200        -0.13506
C         39.25693        12.67930        -0.80546
C         37.88919        14.75756        -1.04251
C         37.84575        16.26709        -1.25287
C         39.18613        14.05808        -1.15686
C         39.10994        16.93449        -1.61406
C         37.85911        19.04137        -1.63232
C         39.08988        18.34463        -1.78831
C         40.72165         2.16098         0.48122
C         40.80631         3.45769        -0.31272
C         42.06887         4.25810        -0.11607
C         40.87451         6.38540         0.34103
C         40.73505         7.80996        -0.01118
C         42.09488         5.59238         0.03086
C         41.82723         8.48642        -0.60162
C         40.55445        10.56065        -0.70806
C         40.46840        11.96645        -1.02917
C         41.74080         9.82093        -0.94358
C         41.57659        12.66290        -1.57183
C         40.31526        14.74494        -1.64760
C         40.28448        16.19545        -1.87321
C         41.50959        14.01048        -1.85333
C         41.43999        16.90055        -2.27990
C         40.26509        19.01532        -2.20511
C         41.42542        18.28873        -2.44127
O         13.61696         7.44147        -2.04154
O         34.19499        14.83953         2.11789
O         28.77368         4.02953         1.23692
O          6.55840         8.23762         0.72202
O         12.54307        14.36471         2.35551
O         35.29989        10.43870         2.44260
O         34.67322        18.36665         0.81102
O         35.30224         5.76236         2.13718
O         27.25430         4.89471        -1.90047
O         40.32216         5.95951         1.60739
O         31.37855        12.44336         2.54850
O          6.98881        17.94001         1.41089
O         20.30311        10.02674         2.54294
O         22.74100         8.58265        -1.11348
O         16.69907         4.02539        -2.25307
O         19.71013        13.23587        -0.49383
O         26.80312         7.83829         1.40946
O         16.27544         9.91004         2.17078
O          3.92418         7.92727        -1.95228
O          4.26786        12.40742        -2.28011
O         11.29727        15.63908        -0.80108
O         21.51032        12.55031         2.52282
O         29.43994         6.12614        -1.63607
O          3.04987        14.54176        -2.50795
O          6.28794         3.72533        -2.03729
O         14.04303        16.85569         2.53977
O         25.15034         6.43159        -1.76118
O          8.19462        11.00644         1.30406
O          6.01904        12.52292         0.87614
O         37.40198        15.32108        -2.31005
O         40.84440         3.07046        -1.72640
H         39.90721         3.04174        -2.05129
O         37.81917        10.01499         2.33268
H         37.08051         9.93203         2.98071
O          7.68722        10.15094        -2.26045
H          6.99134         9.76360        -2.83258
O         35.90900         2.06611        -1.79220
H         35.05767         2.42371        -2.12543
O         38.17874         3.47343        -1.83474
H         37.38526         2.91229        -2.06098
O         24.38596         8.09576         1.98305
H         25.24368         8.19122         2.46021
O          8.72155         3.23497        -2.70144
H          7.80914         3.06966        -3.03636
O         19.60352         7.61119         2.31212
H         20.03404         8.23810         2.94280
O         31.71859         8.24888         2.61481
H         32.41883         8.67760         3.15204
O         27.16954        10.24390        -1.39869
H         27.10521        11.20786        -1.56761
H          0.80207         1.68139         2.18412
H          0.62363         4.09517         1.73219
H          2.85035         0.40851         1.57109
H          0.53350         5.99978         1.36958
H          0.39954         8.38047         0.91528
H          0.17000        10.21123         0.16352
H          0.05097        12.58569        -0.41262
H          0.19916        14.75918        -0.72903
H          0.41858        17.09986        -1.30380
H          1.63685        19.16413        -1.58795
H          5.15163         0.37682         0.74310
H          3.68739        20.40929        -1.07189
H          7.50769         0.37991         0.10807
H          6.10655        20.44742        -0.53239
H          9.87340         0.37473        -0.24180
H          8.67055        20.40896        -0.04587
H         12.30397         0.37081        -0.57920
H         11.06209        20.34427         0.47573
H         14.73500         0.35482        -0.63068
H         13.49916        20.31533         0.69850
H         17.24883         0.34135        -0.76120
H         15.98350        20.27312         0.57825
H         19.69901         0.33054        -0.70588
H         18.39905        20.23368         0.56327
H         22.17108         0.30456        -0.55110
H         20.83981        20.25120         0.51527
H         24.65793         0.29706        -0.41125
H         23.32525        20.28219         0.45589
H         27.13017         0.28598        -0.35825
H         25.80235        20.29267         0.35798
H         29.65023         0.28669        -0.16409
H         28.25371        20.27862         0.12196
H         32.08536         0.27019        -0.03288
H         30.62856        20.22465        -0.35502
H         34.54955         0.25991        -0.10374
H         32.73029        20.02943        -1.37145
H         37.05933         0.37377         0.55144
H         35.47124        20.02728        -1.98235
H         39.49627         0.54856         1.12984
H         37.82250        20.09873        -1.93328
H         41.64957         1.70328         0.85582
H         43.01314         3.71613        -0.27832
H         43.06548         6.11180         0.04961
H         42.76660         7.94760        -0.78373
H         42.61895        10.30289        -1.39098
H         42.52112        12.13790        -1.76219
H         42.40395        14.50510        -2.25239
H         42.37730        16.36583        -2.47928
H         40.24685        20.10505        -2.34594
H         42.34050        18.80435        -2.76404
