         278
 CSIRO Nanostructure Databank - Neutral Graphene Oxide Data Set
C        -11.18188         0.60516         0.66062
C         -9.89210         1.41995         0.71016
C         -8.91555         0.82406        -0.30354
C         -7.55343         1.52172        -0.31122
C         -6.24311         0.79735        -0.40327
C         -4.90902         1.58569        -0.59025
C         -3.63365         0.79599        -0.23626
C         -2.39729         1.53648         0.15718
C         -1.18383         0.77853         0.59450
C         -0.05624         1.46677         0.98032
C          1.26832         0.79464         0.98749
C          2.43914         1.53474         1.62551
C          3.74568         0.76022         1.44401
C          4.95344         1.43771         0.90235
C          5.98198         0.54772         0.19513
C          7.20907         1.31331        -0.33190
C          8.50725         0.58912        -0.55382
C          9.74786         1.41817        -0.90701
C         11.01948         0.61765        -0.71220
C         -9.98802         2.90655         0.39922
C         -8.85834         3.62890         0.13945
C         -7.49691         2.94916         0.17550
C         -6.27068         3.75890        -0.33757
C         -4.96700         2.99752        -0.02766
C         -3.81998         3.65283         0.36813
C         -2.50451         2.98701         0.44022
C         -1.37991         3.64483         0.87248
C         -0.11296         2.93628         1.18264
C          1.22678         3.71260         1.11885
C          2.48278         2.95130         1.03426
C          3.67036         3.59353         0.65150
C          4.88947         2.88854         0.59608
C          6.24306         3.48389         0.65322
C          7.26601         2.80747        -0.22418
C          8.53151         3.56593        -0.43366
C          9.78385         2.76529        -0.14480
C         -8.83667         5.07374         0.00252
C         -7.66584         5.76821         0.16643
C         -6.43182         4.97528         0.57403
C         -5.18083         5.83269         0.83337
C         -3.86253         5.08418         0.67883
C         -2.69791         5.79548         0.77434
C         -1.39454         5.11714         0.97456
C         -0.09421         5.84481         0.69525
C          1.20042         5.11684         0.62528
C          2.34772         5.77429         0.29553
C          3.64927         5.06459         0.34497
C          4.79603         5.73316        -0.36299
C          5.88510         4.98996        -1.12682
C          7.24290         5.63520        -1.02635
C          8.48008         4.88033        -0.78129
C         -7.60662         7.20079        -0.02839
C         -6.41960         7.86498        -0.16346
C         -5.13495         7.06414        -0.18351
C         -3.91978         7.96179         0.23524
C         -2.68358         7.28269         0.69617
C         -1.43837         7.94396         0.17604
C         -0.18493         7.16785         0.00149
C          1.08518         7.82534        -0.53005
C          2.38364         7.29131         0.09297
C          3.53569         7.81197        -0.76083
C          4.65752         7.08917        -0.95844
C          5.88935         7.66462        -1.66622
C          7.18707         6.97871        -1.23550
C         -6.32654         9.28024        -0.48027
C         -5.15925         9.91474        -0.74115
C         -3.80743         9.22075        -0.72699
C         -2.72012        10.05734        -0.15393
C         -1.40063         9.46190         0.28455
C         -0.11216        10.04193        -0.28079
C          1.02161         9.34494        -0.49727
C          2.34717        10.07704        -0.68788
C          3.43967         9.21136        -1.36383
C          4.80267         9.87099        -1.28654
C          5.92513         9.16094        -1.44430
C        -11.26247        -0.67189         0.23971
C        -10.13357        -1.41604        -0.47407
C         -8.84844        -0.68409        -0.13099
C         -7.55247        -1.41447        -0.05760
C         -6.25774        -0.63868         0.02814
C         -4.98381        -1.36495         0.27403
C         -3.65006        -0.59983         0.40100
C         -2.40819        -1.40771        -0.02266
C         -1.14651        -0.66170         0.39483
C          0.01251        -1.37825         0.56967
C          1.31344        -0.70643         0.76150
C          2.50822        -1.51769         1.15232
C          3.73719        -0.76010         1.51931
C          5.05528        -1.48578         1.42679
C          6.26485        -0.77052         0.91326
C          7.41466        -1.44619         0.62994
C          8.60238        -0.78169         0.00966
C          9.97605        -1.34543         0.49278
C         11.11335        -0.60406        -0.17399
C         -9.99749        -2.89943        -0.19340
C         -8.82088        -3.58321        -0.13778
C         -7.51734        -2.89843        -0.12885
C         -6.31773        -3.54761        -0.00983
C         -4.97966        -2.81842        -0.19072
C         -3.76423        -3.57096         0.35261
C         -2.45380        -2.81157         0.62920
C         -1.21235        -3.60740         0.28554
C          0.04750        -2.83853         0.33729
C          1.33278        -3.59152         0.48272
C          2.53306        -2.87826         1.01498
C          3.75125        -3.70920         1.30866
C          5.07133        -2.99539         1.44604
C          6.35552        -3.71848         1.18358
C          7.45384        -2.95061         0.47776
C          8.86718        -3.62034         0.85294
C          9.90237        -2.80706         0.16814
C         -8.86386        -5.11161        -0.05841
C         -7.71349        -5.78041        -0.83264
C         -6.23139        -5.03108         0.10408
C         -4.99036        -5.64553        -0.51242
C         -3.72566        -5.01776         0.00566
C         -2.43310        -5.60590        -0.44142
C         -1.19575        -4.95470         0.03967
C          0.03123        -5.73384        -0.01338
C          1.25808        -5.10469         0.64004
C          2.57187        -5.67235         0.05342
C          3.77257        -5.15603         0.85298
C          5.08422        -5.89923         0.66123
C          6.38461        -5.19579         0.90818
C          7.66511        -5.80706         0.45414
C          8.80619        -5.08329         0.43718
C         -7.37461        -7.15939        -0.57243
C         -6.25884        -7.81841        -1.33831
C         -4.93530        -7.05258        -1.00706
C         -3.62867        -7.81019        -0.79291
C         -2.39725        -6.96699        -1.03489
C         -1.25026        -7.81926        -0.56606
C          0.03430        -7.06354        -0.36008
C          1.33468        -7.68953        -0.86192
C          2.54430        -7.21399         0.00131
C          3.83278        -7.76303        -0.59403
C          5.12517        -7.09777        -0.24856
C          6.41877        -7.93618        -0.37501
C          7.66190        -7.32852         0.33720
C         -6.07430        -9.30992        -1.18637
C         -4.87472        -9.90934        -1.38535
C         -3.60388        -9.20056        -1.37406
C         -2.39193        -9.82431        -1.54104
C         -1.13789        -9.17587        -1.21487
C          0.05846        -9.84808        -1.23672
C          1.32713        -9.21036        -0.93540
C          2.50394        -9.89960        -0.93089
C          3.87071        -9.24105        -1.00181
C          4.94238        -9.94829        -0.18881
C          6.10290        -9.34686         0.11252
O          3.52973        -4.81147         2.23405
O          0.51425         3.47493         2.37793
O          4.79959         1.24893         2.34945
O          5.77109         7.42390        -3.09139
H          5.69254         6.45664        -3.23464
O          6.77697         2.15392        -1.44226
O         -6.40926        -5.47118         1.41001
H         -6.67465        -4.72816         1.99051
O          5.77219        -6.05476         1.93552
O          5.98960        -3.39838         2.53933
O         -0.65261         5.80043         2.04653
O         -7.12153         2.91984         1.60400
O          9.80919         2.45286         1.24981
H          9.76218         3.28333         1.76645
O         -5.79428        -0.95466         1.40474
O         -1.17760         7.26596        -1.09366
O         -4.86513         6.57388        -1.42708
O          4.46018        -1.13089         2.72957
O          8.43283        -0.60536        -1.43554
O          5.56791         4.21111        -2.01251
O          3.11692         9.09474        -2.76669
H          2.39346         8.42670        -2.84438
O         -3.91482        -4.59466         1.39069
O         -2.62753         1.07566        -1.25273
O          1.61783         0.25434        -0.32608
O         -2.40878        -1.57451        -1.45621
H         -1.49119        -1.73676        -1.76486
O          9.00146        -3.53095         2.28305
H          8.21574        -3.93649         2.71124
O          4.48500        -6.86963        -1.53665
O          0.92241        -3.13728        -0.83498
O         -1.31114         9.74345         1.70835
H         -2.12178         9.38264         2.13666
O          9.65590         1.75810        -2.30252
H          9.36054         0.95676        -2.78565
O         -2.34643        -5.86272        -1.92365
O         -1.86742        -8.15302         0.79854
O         -4.89474        -5.91104        -1.92975
O         -3.53422         8.08121         1.61863
O          6.60922         4.32580         1.46842
O         -8.34905        -1.06924         1.16432
O         -3.49635         8.67151        -1.99595
H         -4.05356         7.84400        -2.12187
O         -3.37462        -8.03235         0.66929
O         -6.73125         4.32837         1.87846
O          5.28900         0.06372        -0.99286
H          5.43462         0.72830        -1.70693
O          1.51240        -7.23371        -2.18048
O         -3.44412        -0.32440         1.80325
H         -4.31392        -0.37930         2.26474
O          4.69823         5.80118         1.09082
O          7.22197        -3.19556        -0.91651
H          7.55091        -2.43326        -1.44611
O          2.39547        -7.71119         1.34572
H          2.27459        -8.68469         1.31001
O          1.09567        -5.38183         2.04105
H          1.45658        -6.28091         2.22318
O        -10.41046        -1.34451        -1.89401
H        -10.42230        -0.38178        -2.12445
O         -7.00618         1.13464        -1.60788
O          2.18795         1.60352         3.03751
H          3.03368         1.84925         3.47336
O          2.53583         7.85413         1.42187
H          3.31979         7.41710         1.82815
O         -4.83323         1.81391        -2.02969
H         -3.87026         1.85504        -2.25534
O         -2.37132        -2.61545         2.05523
H         -2.60153        -3.47256         2.47894
O          2.70625        -5.13620        -1.25983
H          2.24434        -5.76236        -1.89872
O         -4.81170        -2.76783        -1.62907
H         -3.91938        -2.38813        -1.84496
O         10.05430        -1.08185         1.89500
H          9.71167        -1.87046         2.38340
O         -7.64035        -5.30452        -2.11306
H         -7.07266        -5.91572        -2.65145
O          4.27211        -9.30110        -2.39726
H          3.67327        -8.69328        -2.88659
O         -9.50843         1.12297        -1.59547
H         -8.77927         1.14014        -2.25796
O         -6.51194        -7.62088        -2.75805
H         -5.69378        -7.83665        -3.25325
O        -10.09432        -5.60389        -0.57960
H        -10.10915        -5.41740        -1.54183
O          6.76727        -8.02151        -1.76487
H          5.96988        -8.36184        -2.24445
O         -9.32410         1.26882         2.02621
H         -9.78804         1.87066         2.64279
O          2.80036        10.50888         0.60226
H          2.76877         9.72549         1.20350
O          7.77595        -7.85012         1.66691
H          7.06973        -7.42585         2.21010
O         -5.33303         6.29594         2.16382
H         -4.54522         6.82513         2.43067
O          1.17686         7.41632        -1.92424
H          0.26573         7.48716        -2.29830
O         -6.33635         4.08602        -1.70974
H         -5.92602         3.34335        -2.21664
H         12.10168        -1.08581        -0.11443
H         11.92742         1.08678        -1.12381
H         10.70356         3.34261        -0.43916
H          9.42285         5.43945        -0.90353
H          8.11497         7.57449        -1.25306
H          6.90938         9.65440        -1.42798
H          4.84403        10.96037        -1.13798
H          2.18716        10.99596        -1.30578
H         -0.06260        11.14249        -0.29511
H         -3.07194        10.85195         0.53048
H         -5.17597        10.98105        -1.01165
H         -7.26917         9.84887        -0.52916
H         -8.55898         7.74433        -0.14039
H         -9.77348         5.60389        -0.22680
H        -10.96155         3.41800         0.46387
H        -12.07966         1.06934         1.10316
H        -12.23327        -1.19119         0.29977
H        -10.92777        -3.49204        -0.19867
H         -8.80336        -5.43418         1.01535
H         -7.52971        -7.51065         0.46075
H         -6.98396        -9.92645        -1.14355
H         -4.83101       -11.00753        -1.45612
H         -2.36266       -10.86834        -1.89032
H          0.07712       -10.90017        -1.56563
H          2.48452       -10.99153        -1.08581
H          4.75757       -10.98810         0.12419
H          6.87727        -9.88677         0.67849
H          8.56910        -7.65846        -0.22456
H          9.75657        -5.57849         0.18434
H         10.11057        -3.07905        -0.88049
