         280
 CSIRO Nanostructure Databank - Neutral Graphene Oxide Data Set
C         30.54815        32.09866        -1.54774
C         30.54339        33.27879        -1.01835
C         30.83172        36.42882        -1.03761
C         31.06543        37.58466        -1.41954
C         30.84926        40.74229        -0.46099
C         30.62666        41.81634         0.09927
C         33.25449        29.65025        -2.28463
C         32.09438        30.12333        -2.28628
C         32.70143        31.68369        -0.53516
C         31.64598        31.27400        -1.58945
C         32.73877        33.17056        -0.24882
C         31.49943        34.03502        -0.39175
C         32.87513        36.06658         0.04621
C         31.71103        35.46136        -0.40750
C         33.27391        37.48492        -0.34434
C         32.14267        38.42705        -0.89048
C         32.79196        40.26030         0.83798
C         31.99697        39.83314        -0.42793
C         32.85490        41.76780         1.06680
C         31.41844        42.44360         1.22024
C         32.77532        44.46881         1.36031
C         31.69988        43.91512         1.14972
C         36.15754        28.18802        -2.16420
C         35.58823        29.24253        -1.39187
C         34.34343        29.81939        -1.38079
C         35.16009        31.51387         0.40009
C         33.98667        30.89581        -0.35730
C         35.17115        33.01254         0.75757
C         33.98377        33.82560         0.24968
C         35.25750        35.90096         1.07425
C         33.85639        35.23744         0.86393
C         35.24599        37.41245         1.35538
C         34.15045        38.18237         0.66852
C         35.32725        40.29616         1.04654
C         34.12923        39.56903         0.86010
C         35.33302        41.73232         0.93496
C         34.04051        42.43291         1.14115
C         35.20973        44.63990         0.74015
C         34.15734        43.94225         1.53774
C         35.43238        45.95169         0.47294
C         37.86951        27.28630        -0.73633
C         37.02156        27.33018        -1.89589
C         37.74773        28.59259         0.02405
C         36.39750        29.32347        -0.08515
C         37.76549        31.54181         0.38752
C         36.46460        30.77692         0.43790
C         37.73466        32.93288         0.19645
C         36.43486        33.72981         0.17069
C         37.89552        35.80479         0.81440
C         36.53903        35.12706         0.84046
C         37.89231        37.31383         0.95549
C         36.62329        38.08530         1.16058
C         37.77439        40.23994         0.25867
C         36.55958        39.52845         0.73070
C         37.79158        41.76488         0.13000
C         36.47631        42.42543         0.54648
C         37.71345        44.64524         0.49470
C         36.41177        43.88292         0.14581
C         37.75322        46.12017         0.20887
C         36.45679        46.67230         0.14815
C         40.44999        24.62551        -0.52099
C         39.34314        25.13322        -0.73528
C         40.42946        27.23254         0.72870
C         38.63929        26.28223        -0.23529
C         40.35274        28.64318         0.50491
C         39.01750        29.33206         0.51639
C         40.23827        31.46300         0.00286
C         38.98817        30.80949         0.43606
C         40.22769        32.88711        -0.43247
C         38.93305        33.70326        -0.35741
C         40.36066        35.79600        -0.06574
C         39.11208        35.06114         0.32265
C         40.35006        37.28239         0.09521
C         39.13961        38.04189         0.52969
C         40.36043        40.22547         0.57801
C         39.10413        39.51096         0.05104
C         40.31938        41.75129         0.39566
C         39.02398        42.39666         0.86910
C         40.27933        44.69117         0.52754
C         39.02083        43.93834         0.74251
C         40.27489        46.08925         0.36735
C         38.98231        46.79334         0.26127
C         40.22962        48.85699         0.42440
C         39.18177        48.19344         0.23939
C         42.88783        24.39423         0.26660
C         41.49561        24.91460         0.54500
C         42.81349        27.21490         0.35733
C         41.60085        26.48437         0.56618
C         42.81138        28.64587         0.38063
C         41.55979        29.35198         0.38744
C         42.70807        31.53892         0.34416
C         41.55535        30.80977         0.25822
C         42.64745        33.06877         0.36702
C         41.57420        33.62977        -0.60452
C         42.75885        35.88465        -0.84462
C         41.49317        35.13589        -0.42326
C         42.78218        37.31258        -0.23789
C         41.47443        38.08449        -0.55986
C         42.64860        40.35984        -0.58781
C         41.54499        39.51313        -0.04082
C         42.76558        41.67230         0.21079
C         41.46281        42.46256         0.24608
C         42.74627        44.64685        -0.00426
C         41.57518        43.92350         0.70234
C         42.85009        46.12919         0.41989
C         41.50996        46.86044         0.36255
C         42.82999        48.86541         0.74482
C         41.52973        48.27672         0.47356
C         43.88247        25.12343         0.23564
C         45.26102        27.25670         0.15566
C         44.08234        26.53992         0.22999
C         45.26319        28.70090         0.15407
C         44.04911        29.37378         0.32159
C         45.17767        31.63843        -0.00674
C         44.03465        30.85827         0.67230
C         45.15959        33.10618         0.38090
C         43.98725        33.77260         0.17867
C         45.27750        35.95803        -0.06499
C         44.11085        35.10053        -0.55576
C         45.27906        37.38320        -0.34426
C         44.02016        38.06635        -0.67908
C         45.25866        40.25387        -0.32223
C         43.99799        39.60120        -0.71168
C         45.24777        41.67453         0.15695
C         44.01250        42.44024        -0.34476
C         45.34095        44.42183         0.24608
C         44.07083        43.88935         0.12073
C         44.94707        46.57758        -1.26426
C         44.00705        46.99393        -0.31168
C         43.82418        48.28799         0.19914
C         47.69200        27.28235         0.44216
C         46.60105        26.74728         0.21089
C         47.91129        28.72367         0.22681
C         46.57099        29.43642         0.00014
C         47.77934        31.63867         0.60207
C         46.56592        30.94332         0.05382
C         47.69868        33.11511         0.85252
C         46.41424        33.86244         0.63734
C         47.67995        36.08966         0.61261
C         46.41612        35.33103         0.39371
C         47.72066        37.49900         0.09665
C         46.44810        38.11880        -0.31433
C         47.72753        40.24419         0.06566
C         46.45190        39.55647        -0.24136
C         47.67615        41.66897         0.36049
C         46.57733        42.35968        -0.07587
C         47.78281        44.56464        -0.73372
C         46.47859        43.77227        -0.53804
C         47.37895        45.94296        -0.91857
C         46.39055        46.66197        -1.13373
C         50.26126        28.94036         1.37634
C         49.10090        29.51377         0.66385
C         50.03549        31.78136         1.66483
C         48.94566        30.99300         0.91524
C         50.15590        33.21271         1.13283
C         48.99060        33.85440         0.81025
C         50.22220        35.95236         0.19522
C         49.00076        35.36941         0.90463
C         50.23441        37.41205        -0.31481
C         48.93027        38.17447        -0.55331
C         50.18973        40.41545        -0.49894
C         48.94787        39.66297        -0.22056
C         50.25031        41.61561        -1.17254
C         49.01161        42.40381        -1.58942
C         50.27074        44.35415        -1.31950
C         48.91880        43.92182        -1.16236
C         51.23452        29.64491         1.71232
C         52.48124        31.91339         1.84393
C         51.44792        31.02976         1.79997
C         52.46762        33.17949         1.62316
C         51.42878        33.97595         1.17013
C         52.58813        36.09834         0.33157
C         51.49020        35.30856         0.65249
C         52.53004        37.35176         0.05587
C         51.48931        38.20661        -0.19160
C         52.59531        40.47969        -0.40141
C         51.44569        39.68501         0.11037
C         52.67204        41.59220        -0.92003
C         51.58187        42.31281        -1.64590
C         51.38162        43.79756        -1.32666
O         37.49440        37.80656         2.28513
O         38.81387        35.11801         1.73875
O         40.20464        37.70850         1.48629
O         40.10951        31.87225        -1.49441
O         50.22464        36.24797        -1.22633
O         35.60788        30.80740         1.61393
O         38.19551        44.46939         1.86728
O         48.16568        41.96708        -2.34122
O         38.09587        28.65214         1.43293
O         46.74057        30.23203        -1.22062
O         48.92429        29.11227        -0.71365
O         36.83069        39.67168        -0.73770
O         32.82896        30.70047         0.52451
O         39.24477        26.54697         1.03037
O         47.64234        37.25046         1.53478
O         44.02884        38.78611        -1.92993
O         33.74947        33.75696        -1.16874
O         46.89464        33.51519         2.01863
O         35.97425        35.25809         2.17145
O         32.71409        39.53462        -1.64029
O         42.90484        41.27161         1.59690
H         42.96434        42.10121         2.12918
O         45.21415        41.67589         1.62478
H         45.76095        40.92798         1.94594
O         42.05319        33.39581        -1.94737
H         41.57996        32.58617        -2.26945
O         38.02511        42.03878        -1.27931
H         37.58588        41.31806        -1.78531
O         38.67978        34.05559        -1.76238
H         38.87413        33.24108        -2.28378
O         34.94682        37.56484         2.76377
H         35.61814        37.02629         3.24392
O         43.25640        46.12124         1.80825
H         43.15199        47.03582         2.15410
O         49.55600        31.89817         3.01553
H         50.08095        32.58273         3.48100
O         40.44695        40.06661         2.01154
H         41.33038        40.42181         2.27656
O         44.78942        31.71386        -1.41016
H         45.35851        31.07472        -1.90985
O         42.93228        37.18953         1.18889
H         42.05444        37.20568         1.63390
O         36.12381        33.96908        -1.21861
H         36.96188        34.17858        -1.70220
O         42.33881        44.57984        -1.39167
H         43.00734        45.05130        -1.94621
O         39.27114        39.50165        -1.38237
H         38.41686        39.22551        -1.78401
O         36.23966        43.96428        -1.28659
H         36.91189        43.36291        -1.69539
O         46.03729        43.68680        -1.94275
H         46.54943        42.95025        -2.36803
O         34.20297        37.30834        -1.46522
H         34.20126        38.15181        -1.97418
O         32.01400        39.68333         1.91280
H         32.51396        39.76899         2.75124
O         48.78607        42.26716         0.90444
H         48.57197        43.18519         1.16879
O         35.55566        28.55910         0.80155
H         35.98789        28.54466         1.68407
O         49.30544        35.61780         2.30832
H         48.48297        35.47021         2.82336
O         45.69649        45.40026         1.10355
H         44.89484        45.69188         1.62236
O         41.85867        43.84077         2.12516
H         41.04294        43.53025         2.57627
O         48.67474        38.12917        -1.97775
H         49.05354        37.28965        -2.32664
O         42.13349        40.68944        -1.89992
H         41.88474        39.83235        -2.33668
O         43.97912        42.33259        -1.77328
H         43.16288        42.78870        -2.08006
O         42.20150        33.43689         1.69846
H         42.90475        33.18926         2.33689
O         44.59564        34.64690        -1.86166
H         44.39886        33.68330        -1.95831
O         34.54478        43.98700         2.91195
H         33.79868        43.65888         3.45596
O         51.32566        39.81717         1.52605
H         51.40355        40.76471         1.76251
O         33.26953        35.08998         2.16827
H         33.92567        34.59758         2.71736
O         44.55656        45.78455        -2.28076
H         45.25606        45.10845        -2.51319
O         51.67677        42.16058        -3.03022
H         52.50815        42.56596        -3.34972
O         30.88915        42.09085         2.46412
H         29.93390        42.30191         2.48556
O         38.89957        42.08658         2.26631
H         38.33334        42.78879         2.66842
O         44.24175        30.95507         2.10466
H         43.53901        30.44283         2.55741
O         35.09877        33.09131         2.18182
H         35.51517        32.27583         2.55319
O         41.28217        38.16673        -1.98877
H         41.83848        37.47782        -2.43767
O         41.00387        24.47497         1.77207
H         40.80226        23.51860         1.72802
O         42.67660        36.02622        -2.27540
H         42.65651        35.11291        -2.65112
