         620
 CSIRO Nanostructure Databank - Neutral Graphene Oxide Data Set
C         23.12461        27.58099         0.31872
C         23.07629        28.93350         0.37238
C         23.17656        31.89328         0.32610
C         23.19772        33.28201         0.30177
C         23.14538        36.23204         0.36680
C         23.16431        37.58520         0.39500
C         23.08103        40.47829         0.56407
C         23.09935        41.84668         0.20242
C         23.06849        44.30740        -1.43473
C         23.08597        45.47408        -2.10956
C         25.42051        24.66623         0.78750
C         24.31685        25.40755         0.52813
C         25.37044        27.49174         1.31077
C         24.26562        26.83024         0.80101
C         25.35152        28.94671         1.53387
C         24.12004        29.70940         1.06247
C         25.42209        31.85225         1.29067
C         24.25195        31.17093         0.85626
C         25.41924        33.27369         1.29957
C         24.29118        33.98237         0.83045
C         25.44783        36.23306         1.45223
C         24.19470        35.45276         1.03275
C         25.47737        37.68085         1.20726
C         24.30439        38.33886         0.88231
C         25.51722        40.55651         0.80332
C         24.25531        39.78815         0.79430
C         25.53137        41.82216         0.04972
C         24.28551        42.48134        -0.14981
C         25.55715        44.37715        -1.21086
C         24.25843        43.92374        -0.58668
C         25.55234        45.64041        -1.86534
C         24.30262        46.26760        -2.18960
C         25.47914        48.33152        -2.64189
C         24.28814        47.58780        -2.63458
C         27.94131        23.17132         1.55322
C         27.88775        24.56676         1.42521
C         26.56781        25.25355         1.49731
C         27.89188        27.44691         1.95889
C         26.55345        26.73911         1.75048
C         27.84090        28.95723         1.74580
C         26.63801        29.67591         1.64104
C         27.87130        31.77950         1.77152
C         26.63877        31.10023         1.60402
C         27.90176        33.25183         1.96092
C         26.60661        34.02129         1.78602
C         27.93309        36.12621         1.56046
C         26.71547        35.48292         1.55927
C         28.00289        37.61681         1.56812
C         26.70298        38.42092         1.70613
C         28.05103        40.38548         0.49610
C         26.81753        39.86437         1.14692
C         28.00857        41.67783        -0.13510
C         26.77096        42.39978        -0.30227
C         27.98401        44.23201        -1.45650
C         26.75732        43.68789        -0.95951
C         27.97890        45.51100        -2.10892
C         26.78161        46.29872        -2.19322
C         27.89697        48.58447        -2.20632
C         26.72041        47.72476        -2.43457
C         27.85819        49.77355        -1.45350
C         30.32598        23.20315         1.13467
C         29.15209        22.49726         1.42646
C         30.28065        24.60961         1.04489
C         29.06577        25.30881         1.21101
C         30.29936        27.54220         1.33007
C         28.98966        26.82947         1.05470
C         30.33296        28.88999         1.68988
C         29.07676        29.64498         1.79756
C         30.33594        31.79819         2.11402
C         29.07601        31.05898         1.85948
C         30.39243        33.25726         1.81865
C         29.17346        33.98495         1.75304
C         30.42495        36.03731         1.24112
C         29.18400        35.38020         1.55251
C         30.45990        37.41371         0.84597
C         29.27358        38.27148         1.08981
C         30.44881        40.16838        -0.05137
C         29.23657        39.63434         0.49767
C         30.45792        41.48406        -0.59318
C         29.21604        42.23191        -0.67166
C         30.43251        43.99707        -1.98740
C         29.18747        43.49656        -1.30816
C         30.46322        45.48960        -2.19556
C         29.22916        45.98800        -2.60756
C         30.37642        48.58989        -2.03549
C         29.17143        48.13296        -2.57490
C         30.31810        49.82989        -1.34739
C         29.04899        50.40657        -1.10122
C         32.64290        20.62130        -0.35456
C         31.52687        21.19566         0.15238
C         32.81666        23.26529         0.61718
C         31.62337        22.43102         1.01336
C         32.80907        24.65203         0.73794
C         31.51779        25.36510         0.74306
C         32.82972        27.51387         1.19572
C         31.53740        26.86413         0.94682
C         32.82664        28.89029         1.55784
C         31.59067        29.57105         1.76720
C         32.88456        31.73026         1.87840
C         31.62303        31.00803         2.06899
C         32.90662        33.23131         2.09742
C         31.61963        33.91416         1.66971
C         32.88090        35.92077         0.93037
C         31.64192        35.28899         1.29113
C         32.86953        37.24979         0.44248
C         31.64903        38.01230         0.40688
C         32.84977        39.96629        -0.55674
C         31.66135        39.39568        -0.04875
C         32.90828        41.32827        -0.97094
C         31.69749        42.06538        -1.01532
C         32.87421        44.15183        -1.64350
C         31.70662        43.43517        -1.46452
C         32.86902        45.58053        -1.88677
C         31.66933        46.26604        -2.14478
C         32.87221        48.52397        -1.76923
C         31.63965        47.78738        -2.20129
C         32.79590        49.90225        -1.22108
C         31.55495        50.52322        -0.98156
C         32.74060        52.51635        -0.23848
C         31.55337        51.83613        -0.46151
C         35.13892        19.24784        -1.16966
C         35.13123        20.63346        -0.75204
C         33.94766        21.24751        -0.25672
C         35.23259        23.32293         0.15249
C         34.01006        22.59941         0.19949
C         35.25560        24.69713         0.53684
C         34.03035        25.38933         0.74522
C         35.29474        27.42675         1.33468
C         34.04188        26.79152         1.05714
C         35.31833        28.85005         1.62534
C         34.07567        29.57939         1.69139
C         35.32798        31.74797         1.99613
C         34.05858        31.00871         1.82887
C         35.35725        33.16339         1.57150
C         34.14792        33.86698         1.50676
C         35.34003        35.77678         0.52707
C         34.12227        35.18502         0.98716
C         35.28311        37.09780        -0.04398
C         34.07562        37.81348        -0.07122
C         35.41210        39.82718        -1.05337
C         34.03707        39.11759        -0.72615
C         35.38451        41.29384        -1.23276
C         34.17950        41.96814        -1.31528
C         35.44900        44.17891        -1.85923
C         34.15448        43.40782        -1.70685
C         35.45466        45.64930        -1.67444
C         34.13012        46.29705        -1.53997
C         35.36007        48.54614        -1.40856
C         34.09958        47.77212        -1.37264
C         35.28034        49.91491        -1.22366
C         34.01225        50.57603        -0.95666
C         35.24236        52.65379        -0.30708
C         33.99251        51.91817        -0.49588
C         35.24083        53.96357         0.22925
C         37.55267        19.26888        -1.60736
C         36.28704        18.59791        -1.52343
C         37.51204        20.78250        -1.55132
C         36.34904        21.35366        -0.78241
C         37.68726        23.37246        -0.19797
C         36.43437        22.68279        -0.29172
C         37.74565        24.67421         0.41413
C         36.50162        25.36178         0.72752
C         37.75754        27.25849         1.75416
C         36.49506        26.67464         1.25472
C         37.80738        28.76167         1.86723
C         36.54824        29.51636         1.73163
C         37.85030        31.68655         1.66556
C         36.60079        30.96708         1.97862
C         37.83705        33.00139         1.27473
C         36.58879        33.75114         1.17938
C         37.80261        35.66778         0.16599
C         36.58388        35.07486         0.67554
C         37.64521        36.85078        -0.51227
C         36.51177        37.72830        -0.46613
C         37.84885        39.94454        -0.27288
C         36.64112        39.10952        -0.72538
C         37.89864        41.34322        -0.81207
C         36.70584        41.96181        -1.38767
C         37.95757        44.24718        -1.35304
C         36.74218        43.45157        -1.66987
C         37.93302        45.69272        -1.56592
C         36.63636        46.37269        -1.60720
C         37.80118        48.56374        -1.48167
C         36.61845        47.84230        -1.50761
C         37.82526        50.03581        -1.49484
C         36.48757        50.74823        -1.30830
C         37.70138        52.78200        -0.50542
C         36.47526        52.08635        -0.69282
C         37.65825        54.12453        -0.03348
C         36.41145        54.68652         0.33014
C         39.91045        16.47530        -2.30014
C         38.76006        17.16966        -2.19119
C         40.01864        19.28533        -1.87218
C         38.74016        18.58984        -1.85936
C         40.02232        20.75959        -1.71745
C         38.82292        21.42174        -1.19196
C         40.18605        23.29795        -0.34197
C         38.89698        22.69129        -0.62021
C         40.21235        24.49968         0.51528
C         38.97815        25.27871         0.71561
C         40.33958        27.26756         1.69979
C         39.03032        26.41355         1.73147
C         40.30770        28.77131         1.65882
C         39.11178        29.45427         1.73746
C         40.39929        31.66679         1.92402
C         39.10167        30.92218         1.90115
C         40.33404        33.18911         1.73778
C         39.13820        33.65061         0.90963
C         40.44005        35.84634         0.47335
C         39.16305        35.03016         0.30926
C         40.53398        37.26392         0.16809
C         39.50144        37.99370        -0.49136
C         40.39254        40.15300         0.05257
C         39.25062        39.34328        -0.28652
C         40.36423        41.54506        -0.16862
C         39.02572        42.23301        -0.32538
C         40.42921        44.25801        -1.25558
C         39.10322        43.59836        -0.98054
C         40.39412        45.77242        -1.25039
C         39.12925        46.41124        -1.51512
C         40.36494        48.68580        -1.62465
C         39.09300        47.88279        -1.66412
C         40.30230        50.10019        -1.15390
C         39.06252        50.75712        -1.10165
C         40.17959        52.83842        -0.42490
C         38.98027        52.12634        -0.70581
C         40.12514        54.23268        -0.07132
C         38.87933        54.88632         0.09603
C         40.01602        56.99665         0.53976
C         38.85221        56.27733         0.39333
C         42.40904        16.48895        -2.60626
C         41.22346        17.08045        -1.89445
C         42.49861        19.25900        -1.93332
C         41.20894        18.59181        -1.97388
C         42.57651        20.62561        -1.57260
C         41.35787        21.44144        -1.48502
C         42.67990        23.27811        -0.43904
C         41.38757        22.69329        -0.70471
C         42.76138        24.59596         0.13523
C         41.55635        25.14904         0.79252
C         42.84199        27.35162         0.98141
C         41.61565        26.57313         1.27360
C         42.84384        28.73959         1.48725
C         41.57182        29.49837         1.59050
C         42.86025        31.64291         1.49703
C         41.63110        30.89263         1.64654
C         42.81410        33.09647         1.41603
C         41.63262        33.79014         1.27170
C         42.84653        35.93412         1.11137
C         41.60142        35.20882         0.95704
C         42.78929        37.39968         1.14668
C         41.61911        38.06772         0.59580
C         42.84739        40.21665         0.41617
C         41.62202        39.47495         0.38484
C         42.82032        41.61967         0.09497
C         41.57900        42.29452        -0.16228
C         42.81895        44.39404        -0.54680
C         41.61290        43.66524        -0.54324
C         42.82779        45.81544        -0.82881
C         41.58186        46.48586        -1.13106
C         42.81842        48.69373        -0.93090
C         41.69617        47.93263        -1.59459
C         42.76637        50.09651        -0.76016
C         41.49861        50.79175        -0.81110
C         42.66072        52.90161        -0.23121
C         41.44410        52.17541        -0.49014
C         42.60224        54.30841         0.04557
C         41.33508        54.96474         0.12795
C         42.48498        57.08193         0.61499
C         41.27710        56.35455         0.42784
C         43.57102        17.16865        -2.68692
C         44.95639        19.18795        -2.09108
C         43.69033        18.53552        -2.20227
C         45.02215        20.55814        -1.68443
C         43.81810        21.26313        -1.38384
C         45.12002        23.27336        -0.84171
C         43.85785        22.61643        -0.88988
C         45.19421        24.61089        -0.20942
C         43.95163        25.31961         0.15331
C         45.26242        27.46690         0.44506
C         44.00647        26.71473         0.56469
C         45.30784        28.85070         0.73602
C         44.14372        29.52633         1.33749
C         45.31690        31.72136         1.08468
C         44.08193        30.99541         1.29923
C         45.34218        33.11817         1.20784
C         44.10511        33.83464         1.66922
C         45.31925        36.00352         1.23865
C         44.06469        35.29220         1.30111
C         45.34584        37.40299         1.06981
C         44.11240        38.18622         1.14202
C         45.32779        40.16064         0.27676
C         44.08839        39.55518         0.62175
C         45.28134        41.54733        -0.22868
C         44.03502        42.31897        -0.07736
C         45.30206        44.43522        -0.38408
C         44.05609        43.70838        -0.33034
C         45.27947        45.85351        -0.51315
C         44.03510        46.54079        -0.74611
C         45.23545        48.73682        -0.60834
C         44.03053        47.99861        -0.76337
C         45.21656        50.13922        -0.47654
C         43.96325        50.82172        -0.47880
C         45.12862        52.97926        -0.04074
C         43.91265        52.23936        -0.25757
C         45.06697        54.38154         0.20699
C         43.79258        55.05151         0.26043
C         43.70083        56.44848         0.53311
C         47.39609        19.16878        -2.27785
C         46.18614        18.51500        -2.35487
C         47.48355        20.55417        -1.96503
C         46.27366        21.24819        -1.65544
C         47.49506        23.43538        -1.58921
C         46.27882        22.63775        -1.30162
C         47.58949        24.85743        -1.11504
C         46.47044        25.39036        -0.27423
C         47.67177        27.54032        -0.11920
C         46.44857        26.84152        -0.01795
C         47.71089        28.92766         0.20574
C         46.50497        29.59660         0.56528
C         47.76551        31.72101         0.75520
C         46.53005        31.01310         0.80639
C         47.78293        33.14214         0.91080
C         46.55824        33.84246         1.09766
C         47.78931        35.98738         1.08684
C         46.55640        35.27744         1.15930
C         47.78909        37.40198         1.00810
C         46.56841        38.09843         0.86366
C         47.83630        40.11042         0.13611
C         46.54086        39.48106         0.45600
C         47.87131        41.59038        -0.25679
C         46.57496        42.31002        -0.42400
C         47.75498        44.48230        -0.05765
C         46.54951        43.77115        -0.26642
C         47.71042        45.90148        -0.12331
C         46.50854        46.56045        -0.42958
C         47.80524        48.79928        -0.60430
C         46.51605        48.01320        -0.70257
C         47.68803        50.25240        -0.37507
C         46.45713        50.88828        -0.31333
C         47.58924        53.06609         0.13019
C         46.39732        52.32224        -0.08295
C         47.49433        54.45984         0.37634
C         46.27534        55.09656         0.41010
C         49.98813        20.59409        -2.07785
C         48.75566        21.24401        -1.98613
C         50.10027        23.42891        -1.71791
C         48.75828        22.71470        -1.95557
C         50.10918        24.78087        -1.12785
C         48.90297        25.51521        -0.92465
C         50.14010        27.54436        -0.29179
C         48.89991        26.84788        -0.45276
C         50.17435        28.88025         0.09084
C         48.96028        29.61865         0.27749
C         50.24384        31.73383         0.56151
C         48.99294        31.01150         0.56269
C         50.25663        33.14798         0.68151
C         49.02386        33.86248         0.86940
C         50.28440        35.98968         0.90280
C         49.03595        35.26816         0.99051
C         50.30959        37.39512         0.94265
C         49.05883        38.16554         1.26819
C         50.26909        40.22831         0.53333
C         49.07252        39.53221         0.65057
C         50.27816        41.65797         0.30110
C         49.07397        42.35768         0.07699
C         50.22945        44.47930         0.35285
C         49.02084        43.77768         0.14146
C         50.21156        45.93907         0.52896
C         48.91566        46.68700         0.22805
C         50.22112        48.78390         0.09754
C         49.02655        48.10736        -0.12304
C         50.27550        50.25169        -0.11056
C         48.94028        51.01429        -0.30596
C         50.07909        53.07318         0.38863
C         48.88903        52.42605         0.08147
C         51.22570        21.25647        -1.93588
C         52.57465        23.26845        -1.31123
C         51.33050        22.61898        -1.64829
C         52.56940        24.60054        -0.83142
C         51.34531        25.32714        -0.74970
C         52.68560        27.42718        -0.23890
C         51.38852        26.78510        -0.52788
C         52.68472        28.86005         0.08133
C         51.45373        29.54433         0.55634
C         52.67425        31.74172         0.23276
C         51.47018        31.04090         0.36950
C         52.71529        33.15273         0.39171
C         51.49554        33.85421         0.62060
C         52.74958        35.97640         0.64241
C         51.51332        35.27593         0.72532
C         52.75991        37.39815         0.69107
C         51.52596        38.10765         0.79753
C         52.74424        40.24750         0.64303
C         51.52378        39.53698         0.71140
C         52.73919        41.67729         0.56113
C         51.50193        42.37758         0.42774
C         52.71045        44.53761         0.51532
C         51.47467        43.80175         0.42096
C         52.69066        45.96203         0.49040
C         51.48160        46.68009         0.45537
C         52.67185        48.85283         0.61430
C         51.44874        48.10121         0.40597
C         52.63030        50.27371         0.75071
C         51.41191        51.00262         0.43741
C         51.30230        52.38212         0.55194
C         55.03937        23.22867        -1.40863
C         53.83501        22.64134        -1.64219
C         55.13664        24.42302        -0.55681
C         53.83724        25.17679        -0.29452
C         55.16091        27.42878        -0.31401
C         53.91899        26.65119         0.15605
C         55.13631        28.78815        -0.44710
C         53.86933        29.55427        -0.35879
C         55.20485        31.74315        -0.11724
C         53.90295        31.06156        -0.23883
C         55.20585        33.13994         0.13716
C         53.96830        33.85141         0.33429
C         55.22239        35.97833         0.44470
C         53.98350        35.26130         0.47833
C         55.22772        37.40082         0.54697
C         53.99272        38.11606         0.63344
C         55.21914        40.26346         0.66220
C         53.98815        39.53854         0.65641
C         55.20834        41.68635         0.69639
C         53.96482        42.40118         0.61676
C         55.18531        44.55130         0.77360
C         53.94573        43.82462         0.59239
C         55.16403        45.93755         0.86057
C         53.98594        46.71320         0.33546
C         55.07989        48.88074         1.07124
C         53.90991        48.16613         0.75803
C         55.00770        50.27160         1.28011
C         53.81356        50.95494         1.10545
C         57.72538        24.54395        -0.79466
C         56.45199        25.15479        -0.38475
C         57.68751        27.39870        -0.60432
C         56.44450        26.69214        -0.29423
C         57.67846        28.85218        -0.83255
C         56.35302        29.59911        -0.75063
C         57.64931        31.72051        -0.35352
C         56.39685        31.03962        -0.39232
C         57.66814        33.13499        -0.10268
C         56.44420        33.84903         0.11732
C         57.69005        35.98317         0.29110
C         56.45235        35.26682         0.28883
C         57.69768        37.40677         0.44496
C         56.46021        38.12340         0.54602
C         57.69621        40.26426         0.67940
C         56.45881        39.54510         0.63605
C         57.69143        41.69271         0.78439
C         56.44335        42.40833         0.79209
C         57.67189        44.53730         0.98311
C         56.43232        43.81997         0.88865
C         57.66516        45.95261         1.11893
C         56.38063        46.65297         1.25776
C         57.66489        48.83511         1.10962
C         56.36971        48.16835         1.32080
C         58.88069        25.26215        -0.77721
C         60.12232        27.44609        -0.69693
C         58.89294        26.70394        -0.64628
C         60.13392        28.82275        -0.61576
C         58.93490        29.59175        -0.63987
C         60.10747        31.76341        -0.48172
C         58.89650        31.00757        -0.51505
C         60.11135        33.12108        -0.28343
C         58.90361        33.84918        -0.07657
C         60.13164        36.01028         0.19108
C         58.91673        35.27091         0.13849
C         60.13818        37.37608         0.36243
C         58.93001        38.11778         0.48032
C         60.14033        40.29339         0.69987
C         58.93018        39.55217         0.62341
C         60.13573        41.66540         0.81585
C         58.92161        42.40426         0.85351
C         60.11719        44.60344         1.03126
C         58.91778        43.84371         0.95550
C         60.09498        45.98128         1.11322
C         58.86330        46.68645         1.15968
C         58.82777        48.13399         1.11634
O         29.22259        47.07200        -3.48435
O         37.66446        27.89048         3.06195
O         34.74067        43.69680        -3.04262
O         26.24567        25.78833         2.83612
O         49.46931        23.35229        -3.04671
O         24.42672        35.82595         2.42337
O         43.33252        37.99034         2.36850
O         35.99339        31.41618         3.25945
O         37.13514        50.66981        -2.62241
O         24.30932        29.35776         2.47695
O         26.20698        40.77897         2.10289
O         43.74481        28.94369         2.62687
O         52.26267        27.32434        -1.65218
O         40.97679        24.24641         1.78157
O         47.30084        48.34862        -1.91329
O         31.39362        26.25177        -0.43372
O         54.41844        24.28123         0.71139
O         41.27404        26.75253         2.69482
O         33.96420        46.93584        -0.17365
O         27.10265        33.65603         3.11842
O         49.84419        50.70585        -1.42682
O         38.67322        37.27747        -1.34518
O         39.35706        33.81171        -0.52092
O         45.83849        41.79290        -1.57216
O         48.03844        40.55722        -1.26061
O         39.71052        48.43465        -2.91482
O         30.97574        31.40706         3.37793
O         34.60583        39.13802        -2.06079
O         56.54923        25.82780         0.90535
O         28.95352        38.17483         2.54072
O         56.28063        47.37846         2.55837
O         36.98650        42.51488        -2.76463
O         32.55169        48.37797        -3.19540
O         56.93575        29.27649        -2.05201
O         53.67944        30.44516        -1.55780
O         49.33900        46.40281         1.61770
O         40.67402        21.52933        -2.79215
O         46.18246        24.59362         0.92138
O         39.76142        31.28918         3.18922
O         47.19905        24.56800        -2.49483
O         51.42636        29.36294         2.03388
H         50.59266        29.76397         2.36246
O         49.08763        38.38081         2.73558
H         49.07669        37.49670         3.16087
O         31.91177        21.95816         2.37678
H         32.74826        21.44729         2.33899
O         41.40682        16.74657        -0.46906
H         40.61395        17.06951         0.00941
O         44.21297        33.82837         3.14675
H         43.40625        34.26141         3.50162
O         53.95929        26.66843         1.59403
H         54.65333        26.01789         1.86005
O         37.26966        21.17781        -2.96170
H         37.40295        22.14787        -3.02128
O         32.97936        33.42621         3.54369
H         32.28592        32.84593         3.94122
O         30.34200        43.44193        -3.37073
H         31.16129        43.70493        -3.84415
O         42.15936        47.81544        -2.97440
H         41.35037        47.80363        -3.54047
O         38.99845        25.71381         2.99508
H         39.89213        25.31145         3.12275
O         54.23126        46.77599        -1.13309
H         53.45492        47.22102        -1.53700
O         38.62625        42.56932         1.07060
H         38.32249        41.72353         1.48950
O         40.68070        43.90065        -2.67398
H         39.92917        44.24103        -3.20617
O         28.64030        27.09801        -0.33066
H         29.42238        26.82432        -0.86679
O         26.46374        38.52256         3.12620
H         27.31691        38.77577         3.54472
O         24.12952        44.69623         0.66044
H         24.12947        45.64603         0.41496
O         37.56203        40.06926         1.21059
H         37.75514        39.20001         1.62582
O         28.31727        27.23949         3.31896
H         27.66123        26.63392         3.74040
O         40.13431        33.78813         3.04873
H         39.83015        33.06174         3.64857
H         22.31727        27.02338        -0.17843
H         22.24426        29.46003        -0.11499
H         22.27684        31.37416        -0.02737
H         22.31522        33.81687        -0.07036
H         22.32736        35.71723        -0.15461
H         22.33558        38.13441        -0.07182
H         22.10902        39.97247         0.63984
H         22.14225        42.37776         0.11610
H         22.14887        43.70638        -1.39450
H         22.19307        45.83629        -2.64103
H         25.48343        23.62140         0.45041
H         23.45562        24.95329         0.01627
H         25.43835        49.41186        -2.83950
H         23.33515        48.07010        -2.89363
H         27.02028        22.60952         1.76124
H         26.89597        50.20083        -1.13813
H         29.18454        21.40641         1.54998
H         28.98560        51.35651        -0.55466
H         32.54898        19.67780        -0.91078
H         30.55233        20.70082         0.03002
H         32.68475        53.54919         0.12857
H         30.60609        52.35178        -0.25722
H         34.20528        18.67178        -1.11889
H         34.30353        54.43108         0.55625
H         36.23495        17.51764        -1.71826
H         36.36283        55.70637         0.73236
H         39.89187        15.41234        -2.58442
H         37.80989        16.66965        -2.42571
H         39.97983        58.07381         0.75640
H         37.89215        56.80064         0.48909
H         42.33639        15.45744        -2.98208
H         42.43300        58.15795         0.83422
H         44.44481        16.69157        -3.15317
H         44.61151        57.04025         0.68986
H         48.31210        18.60653        -2.50327
H         46.17908        17.45118        -2.62684
H         48.40423        55.05312         0.53265
H         46.25641        56.17734         0.59724
H         50.01672        19.49997        -2.17507
H         50.08082        54.14805         0.61353
H         52.13246        20.63563        -1.94950
H         52.16644        52.97374         0.88330
H         55.95485        22.78584        -1.82540
H         53.81109        21.70893        -2.22337
H         55.90943        50.82882         1.56852
H         53.80555        52.04431         1.24019
H         57.74684        23.47711        -1.05888
H         57.68256        49.91984         0.92944
H         59.83534        24.76231        -0.99824
H         61.07134        26.89245        -0.72670
H         61.10477        29.33302        -0.55352
H         61.06745        31.25310        -0.63418
H         61.07570        33.64514        -0.28372
H         61.09546        35.49396         0.09443
H         61.10616        37.89305         0.39326
H         61.10716        39.77431         0.67069
H         61.09873        42.18936         0.87349
H         61.09020        44.09496         1.01214
H         61.03822        46.54529         1.14570
H         59.78433        48.66396         0.99471
