         648
 CSIRO Nanostructure Databank - Neutral Graphene Oxide Data Set
C          5.87711        31.57893         0.64170
C          5.85487        32.94310         0.71462
C          8.38645        27.32494        -0.07032
C          8.38138        28.64930         0.37689
C          7.06560        29.30787         0.75814
C          8.30242        31.48126         0.85027
C          7.11534        30.82165         0.72362
C          8.36296        32.95782         0.53504
C          7.07606        33.71426         0.75245
C          8.36533        35.83263         0.80926
C          7.11673        35.08484         0.81374
C          8.38370        37.25085         0.85639
C         10.83517        23.23204        -1.33015
C         10.80504        24.60006        -1.01989
C          9.62090        25.27868        -0.72229
C         10.83071        27.31871        -0.00919
C          9.60743        26.65230        -0.30373
C         10.85913        28.64839         0.46018
C          9.60427        29.31412         0.59481
C         10.86720        31.45127         1.15199
C          9.56653        30.72087         1.03430
C         10.85006        32.95334         1.19546
C          9.56136        33.69400         1.08389
C         10.84296        35.84876         0.87035
C          9.59228        35.15214         0.86052
C         10.83235        37.29074         0.82709
C          9.58094        37.96517         0.89767
C         10.75601        40.22100         0.85852
C          9.47285        39.46074         1.12253
C         10.84529        41.60993         1.26891
C         13.26668        19.01114        -2.09072
C         13.27278        20.41772        -1.90220
C         12.06086        21.16246        -1.80585
C         13.31804        23.25612        -1.39497
C         12.05845        22.53779        -1.54137
C         13.35226        24.60728        -1.05200
C         12.07979        25.41035        -1.10850
C         13.38999        27.23216         0.15691
C         12.08185        26.54954        -0.11964
C         13.37528        28.66070         0.50888
C         12.13469        29.32142         0.70580
C         13.34157        31.45221         0.97360
C         12.15130        30.75052         0.90278
C         13.37253        32.90625         0.74614
C         12.07361        33.68595         0.77738
C         13.33389        35.83936         0.40618
C         12.06690        35.14885         0.84096
C         13.31601        37.31998         0.73175
C         12.08545        37.99024         0.77603
C         13.32744        40.19655         0.89469
C         12.07164        39.46254         0.66477
C         13.31906        41.58819         1.06258
C         12.05739        42.32611         1.16684
C         13.33194        44.45392         0.90143
C         12.06065        43.72897         1.21578
C         13.32145        45.93558         1.14377
C         15.74491        14.61685        -1.91551
C         15.76897        16.12279        -1.80549
C         14.47673        16.83124        -2.13281
C         15.75521        18.91117        -1.94079
C         14.44869        18.21329        -2.08850
C         15.75891        20.39617        -1.80490
C         14.50088        21.14256        -1.78252
C         15.78947        23.24994        -1.46146
C         14.55066        22.53872        -1.56428
C         15.82868        24.59994        -1.06803
C         14.59295        25.28360        -0.81745
C         15.85505        27.32540        -0.22575
C         14.63641        26.62238        -0.34611
C         15.84718        28.68451         0.28150
C         14.62563        29.32856         0.62017
C         15.88233        31.49592         1.19819
C         14.59135        30.68324         1.31841
C         15.84418        32.98030         1.05517
C         14.62740        33.67733         0.89911
C         15.80840        35.80531         0.89644
C         14.60096        35.09178         0.81143
C         15.81604        37.26893         0.65637
C         14.54619        38.04661         0.74120
C         15.80307        40.22335         0.94809
C         14.54762        39.44829         0.87117
C         15.75608        41.62565         1.42453
C         14.55218        42.28937         1.37355
C         15.73943        44.53501         1.84891
C         14.48228        43.75458         1.59904
C         15.76898        45.97322         1.52409
C         14.49601        46.65723         1.30641
C         15.69373        48.81733         1.19652
C         14.50400        48.07923         1.15205
C         15.73755        50.18174         0.88110
C         18.08166        10.50410        -0.68634
C         18.09621        11.84785        -1.11018
C         16.94314        12.48369        -1.57094
C         18.22888        14.56423        -2.01975
C         16.90970        13.89614        -1.82116
C         18.27335        16.01787        -2.44554
C         16.96801        16.76025        -2.51023
C         18.26719        18.99630        -2.39441
C         16.98525        18.26102        -2.50659
C         18.25819        20.34296        -2.07891
C         17.00569        21.12602        -2.14011
C         18.33649        23.25134        -1.52899
C         17.05012        22.60147        -1.85549
C         18.32517        24.61783        -1.16113
C         17.08363        25.30669        -0.95535
C         18.32512        27.42559        -0.57001
C         17.09051        26.68075        -0.58292
C         18.27935        28.79630        -0.15243
C         17.10251        29.38513         0.31935
C         18.37148        31.60097         0.57212
C         17.14893        30.79216         0.79016
C         18.33753        32.99218         0.97730
C         17.06312        33.69478         1.06388
C         18.27844        35.83823         1.29423
C         17.04424        35.11866         1.05340
C         18.32432        37.22704         1.30979
C         17.13787        37.98815         0.84581
C         18.28349        40.17585         1.58312
C         17.10532        39.48116         0.99799
C         18.31895        41.65315         1.47472
C         17.02917        42.31206         1.76432
C         18.30170        44.55811         1.72417
C         17.04457        43.81189         1.97347
C         18.25222        45.95864         1.63727
C         16.97305        46.64707         1.55748
C         18.25506        48.87883         1.46218
C         16.94970        48.12602         1.57180
C         18.22643        50.28521         1.01769
C         16.95531        50.92533         0.77661
C         18.07917        53.07714         0.20159
C         16.90696        52.22565         0.25717
C         18.12521        54.26493        -0.63128
C         20.06975         7.04636         2.28039
C         19.76294         8.31263         1.82021
C         18.93459         8.73608         0.73867
C         20.50607        10.56005        -0.14127
C         19.17386         9.94178         0.02852
C         20.59753        11.82170        -0.73844
C         19.32121        12.65421        -0.71960
C         20.62158        14.68375        -1.43177
C         19.43464        13.97862        -1.42729
C         20.65161        16.08852        -1.82138
C         19.52092        16.76991        -2.21002
C         20.72373        18.94167        -1.97848
C         19.56745        18.24238        -2.65883
C         20.51853        20.14537        -1.37235
C         19.44348        21.05923        -1.66830
C         20.83878        23.18710        -1.13392
C         19.52523        22.46244        -1.49572
C         20.77188        24.70179        -1.33967
C         19.57662        25.36365        -1.09961
C         20.80483        27.53251        -0.98119
C         19.56145        26.80071        -0.91633
C         20.75526        29.01029        -0.86465
C         19.48659        29.63132        -0.37199
C         20.84448        31.63178         0.40517
C         19.55303        30.98899         0.20859
C         20.80296        32.89271         1.20801
C         19.52614        33.64375         1.24926
C         20.80400        35.80496         1.87332
C         19.47342        35.05332         1.67297
C         20.76405        37.26870         1.69468
C         19.56729        37.93173         1.54392
C         20.75899        40.18096         1.27492
C         19.54831        39.41748         1.69613
C         20.77854        41.66264         1.34398
C         19.51981        42.36076         1.47467
C         20.75240        44.49513         1.44254
C         19.53791        43.81836         1.56610
C         20.79257        45.98459         1.69107
C         19.48051        46.71771         1.49816
C         20.73356        48.83189         1.04906
C         19.50118        48.09241         1.32780
C         20.68328        50.24720         0.83599
C         19.45028        50.94254         0.78823
C         20.67590        53.04572         0.00011
C         19.45813        52.40058         0.53598
C         20.60941        54.32214        -0.61096
C         19.32326        54.91297        -0.95475
C         20.48612        56.72014        -2.17869
C         19.29922        56.09117        -1.73905
C         20.43923        57.84333        -3.03365
C         22.29127         4.93980         4.45877
C         21.18658         5.45559         3.78159
C         22.50844         7.34125         3.02715
C         21.25345         6.67943         3.06639
C         22.79468         8.69357         2.39031
C         21.65242         9.31020         1.65380
C         23.01034         9.90361        -0.20441
C         21.67889         9.80566         0.37876
C         23.06951        11.89175        -1.13438
C         21.82552        12.54843        -1.04246
C         23.12959        14.62317        -1.19927
C         21.87249        13.97272        -1.15540
C         23.15449        16.13092        -1.12933
C         21.97706        16.76654        -1.83767
C         23.35503        18.96076        -1.68932
C         22.04272        18.26530        -1.94577
C         23.41055        20.41086        -1.81156
C         22.39000        21.17996        -1.34137
C         23.34006        23.32626        -1.70079
C         22.06145        22.55647        -1.84890
C         23.33064        24.75611        -1.83599
C         21.97933        25.49274        -1.64358
C         23.29387        27.68067        -1.27402
C         22.02441        26.93045        -1.30992
C         23.31123        28.96521        -0.76232
C         22.05884        29.82313        -0.87743
C         23.33478        31.86504         0.04193
C         22.03813        31.06176         0.01852
C         23.36034        33.06199         0.95681
C         22.10974        33.65237         1.45263
C         23.33199        35.80708         2.07381
C         22.06324        35.08748         1.68449
C         23.28930        37.23349         1.50788
C         22.05009        38.05272         1.83617
C         23.27677        40.20132         0.94510
C         22.01554        39.40968         1.12582
C         23.27188        41.66093         1.18721
C         21.99952        42.34866         1.29557
C         23.22476        44.47361         1.12548
C         22.00204        43.79379         1.29447
C         23.20638        45.90465         0.76271
C         21.91215        46.65511         0.93148
C         23.15518        48.75694         0.37918
C         21.93290        48.12322         0.90450
C         23.14295        50.24281         0.25242
C         21.97845        51.03064         0.82034
C         23.11378        53.04678        -0.18535
C         21.90738        52.38481         0.14395
C         23.06374        54.37711        -0.65859
C         21.81614        54.98192        -0.97602
C         22.93690        56.81087        -2.22937
C         21.76304        56.19667        -1.76111
C         22.88775        57.90649        -3.12741
C         21.61840        58.43625        -3.52927
C         22.76639        60.10749        -4.88851
C         21.58732        59.55309        -4.41471
C         23.53205         5.56916         4.37264
C         24.98985         7.30536         3.37316
C         23.67128         6.75233         3.61042
C         25.22724         8.21992         2.33837
C         24.01739         8.50859         1.48968
C         25.37861        10.45840         0.46917
C         24.16477         9.60547         0.47247
C         25.43964        11.80737        -0.20214
C         24.30484        12.50492        -0.90090
C         25.63728        14.58978        -0.93150
C         24.34472        13.91362        -1.01329
C         25.71859        15.97620        -1.46074
C         24.45471        16.74874        -1.63054
C         25.83287        18.87738        -1.69862
C         24.52420        18.23338        -1.68232
C         25.97292        20.33177        -2.18098
C         24.64393        21.12791        -2.23016
C         25.76248        23.28266        -1.33088
C         24.59749        22.61736        -1.96944
C         25.81720        24.75163        -1.26180
C         24.63019        25.51339        -1.75260
C         25.97903        27.70289        -1.40843
C         24.60384        27.01362        -1.64918
C         25.81417        28.74987        -0.30484
C         24.63252        29.70002        -0.61893
C         25.80288        31.72638         0.40916
C         24.61127        31.04157         0.12472
C         25.82531        33.08098         0.86339
C         24.57709        33.77255         1.10107
C         25.82553        35.80557         1.82918
C         24.58429        35.09334         1.62041
C         25.83082        37.37287         1.68826
C         24.55094        37.97336         1.21717
C         25.81661        40.20748         1.17602
C         24.57088        39.45622         0.96131
C         25.76801        41.62175         1.18364
C         24.48868        42.34157         1.20773
C         25.68939        44.52568         1.09149
C         24.48753        43.79706         1.16227
C         25.69964        45.95826         0.88127
C         24.47463        46.66059         0.70604
C         25.66876        48.80006         0.51330
C         24.45895        48.05341         0.50577
C         25.64764        50.24310         0.25960
C         24.43234        50.95876         0.16269
C         25.60800        53.02018        -0.37408
C         24.40398        52.35059        -0.08278
C         25.66233        54.52453        -0.49713
C         24.30851        55.15900        -0.82002
C         25.47132        56.86326        -2.37633
C         24.24466        56.39211        -1.69020
C         25.36429        57.91560        -3.28198
C         24.10053        58.49020        -3.63117
C         24.01421        59.58346        -4.51235
C         26.46905         8.79035         2.00971
C         27.83123        10.52293         0.94747
C         26.61969         9.87043         1.07654
C         28.00333        11.78622         0.20012
C         26.78411        12.45255        -0.37537
C         27.97520        14.70122        -0.14713
C         26.77767        13.92654        -0.55403
C         28.07427        16.14522        -0.53884
C         27.07656        16.66613        -1.55453
C         28.34875        18.89223        -1.66858
C         27.00031        18.18269        -1.52981
C         28.22938        20.34734        -1.21659
C         27.07129        21.03260        -1.38285
C         28.14828        23.21653        -0.54602
C         26.95730        22.45114        -0.94723
C         28.04823        24.57855        -0.25310
C         26.85156        25.35192        -0.56182
C         28.19802        27.44858        -0.31887
C         26.82195        26.85680        -0.40811
C         28.30131        28.79733        -0.21447
C         27.05552        29.52890         0.07290
C         28.42453        31.69818         0.25409
C         27.10420        30.98608         0.39280
C         28.45010        33.07429         0.86946
C         27.11147        33.70811         1.27476
C         28.27466        35.92725         1.77225
C         27.12628        35.17360         1.61203
C         28.29743        37.38193         1.64148
C         27.07523        38.07689         1.44594
C         28.26643        40.22210         1.17292
C         27.04588        39.49694         1.23328
C         28.22710        41.64628         1.10673
C         26.99017        42.33465         1.18145
C         28.16553        44.50430         0.69266
C         26.99687        43.82917         1.41916
C         28.19806        45.97534         1.05367
C         26.91332        46.70803         0.84747
C         28.16775        48.89359         0.82750
C         26.89942        48.11063         0.72580
C         28.14894        50.32662         0.34250
C         26.84914        50.95221         0.02729
C         28.05761        52.95520        -0.81561
C         26.82464        52.30867        -0.36056
C         27.97563        54.24829        -1.40320
C         26.78626        54.98683        -1.41487
C         26.68836        56.16878        -2.16822
C         29.17837        12.64456         0.51059
C         30.36802        14.82803         0.76079
C         29.17953        13.98564         0.33219
C         30.49364        16.18439         0.08814
C         29.39144        16.83753        -0.50250
C         30.71806        18.85207        -0.74436
C         29.49613        18.17170        -0.95078
C         30.77337        20.33427        -0.82417
C         29.46656        21.08912        -0.90101
C         30.50932        23.07183         0.13846
C         29.36512        22.46911        -0.38703
C         30.57413        24.51712         0.18016
C         29.27712        25.30934         0.28712
C         30.72472        27.33837        -0.16582
C         29.42889        26.61089        -0.50041
C         30.73634        28.74763         0.05582
C         29.55927        29.48221        -0.06353
C         30.91265        31.47043        -0.00726
C         29.56281        30.92707         0.03329
C         30.95588        33.64184         0.52533
C         29.57212        34.16612         0.70805
C         30.83925        35.97417         2.00014
C         29.56126        35.13901         1.90181
C         30.80968        37.44162         1.74311
C         29.51093        38.10126         1.48498
C         30.73624        40.21247         1.07627
C         29.51245        39.50536         1.23415
C         30.70426        41.64058         0.91288
C         29.47680        42.36865         0.98060
C         30.69655        44.47656         0.77283
C         29.48497        43.78537         0.89313
C         30.84141        45.97365         0.98330
C         29.49985        46.70359         1.04664
C         30.66266        48.81953         0.09387
C         29.49890        48.18352         0.80837
C         30.49022        50.16083        -0.49175
C         29.35442        50.90974        -0.30296
C         29.24750        52.23297        -0.84175
C         31.73034        16.84261         0.14885
C         33.22262        18.84611        -0.18357
C         31.85402        18.18222        -0.24280
C         33.20607        20.36801        -0.11411
C         31.89723        20.99458        -0.11362
C         33.44923        23.29567         0.07538
C         31.66494        22.25359         0.40546
C         32.91293        24.36482        -0.57965
C         31.76390        25.15221        -0.17605
C         33.21279        27.32585        -0.42618
C         31.89944        26.60001        -0.24511
C         33.24608        28.76727        -0.00797
C         31.98861        29.34360         0.66535
C         33.24009        31.56019         0.92214
C         32.00490        30.84779         0.50596
C         33.26945        33.04576         1.24190
C         32.04941        33.89756         1.27408
C         33.35164        35.97103         1.41305
C         32.17056        35.19834         2.03907
C         33.29272        37.40458         1.26038
C         32.06606        38.12768         1.37554
C         33.21477        40.19941         0.78834
C         32.00649        39.50653         1.07530
C         33.18222        41.63603         0.33556
C         31.90284        42.35578         0.66644
C         33.13951        44.46954         0.25954
C         31.90279        43.75158         0.60778
C         32.99174        45.84471        -0.20837
C         31.87165        46.56459         0.03711
C         31.75307        47.96461        -0.52045
C         34.41152        21.04956        -0.22060
C         35.73957        23.11910        -0.81081
C         34.57817        22.48663        -0.35422
C         35.88918        24.55868        -0.87004
C         34.71488        25.41386        -1.04150
C         35.78542        27.27925         0.10242
C         34.55298        26.64915        -0.50085
C         35.75737        28.79567         0.07244
C         34.56166        29.45163         0.20828
C         35.78985        31.66468         0.52138
C         34.55887        30.85810         0.68791
C         35.77496        33.06539         0.64861
C         34.58428        33.79307         1.14944
C         35.70608        35.97932         0.67310
C         34.51495        35.28153         1.06589
C         35.70937        37.39951         0.67291
C         34.48799        38.11439         0.92551
C         35.67473        40.30620         0.55188
C         34.44482        39.53353         0.76827
C         35.65756        41.66129         0.54135
C         34.39033        42.41909         0.84727
C         34.33835        43.82999         0.31073
C         37.08729        25.25278        -0.70929
C         38.19861        27.44866        -0.53813
C         37.06008        26.66371        -0.45697
C         38.18797        28.85476        -0.29542
C         37.01240        29.52765         0.04459
C         38.19033        31.71767         0.05385
C         36.99936        30.98110         0.19132
C         38.15535        33.13420         0.05750
C         36.93936        33.81953         0.34146
C         38.08585        35.97452         0.02863
C         36.90416        35.25766         0.35305
C         38.06355        37.39635         0.03836
C         36.91729        38.09815         0.35907
C         37.00777        39.59975         0.46740
C         39.45604        29.61578        -0.61108
C         40.64721        31.82829        -0.48092
C         39.51790        30.99105         0.06575
C         40.56502        33.16908        -0.58006
C         39.34332        33.89045        -0.25103
C         39.28989        35.27172        -0.27829
O         16.69802        40.13093        -0.24178
O         10.20947        30.89801         2.35073
O         26.43381        20.22646        -3.50551
O         34.08918        33.27716         2.42064
O         12.62958        33.20931        -0.52092
O         30.57149        48.83342         1.55427
O         33.05157        28.42643        -1.42075
O         25.08884        11.73197         1.23376
O         22.27011        46.11740        -0.37823
O         16.68262        37.59014        -0.48353
O         16.94115        22.05334        -3.24903
O         25.86547        22.66370         0.02546
O         22.23529        17.37317        -3.13083
O         30.79264        36.87815         3.15046
O         10.15558        33.41408         2.39304
O         27.69575        11.72085        -1.25800
O         18.80964        39.77046         2.91514
O         18.77307        53.19610         1.50862
O         20.48557         9.39319         2.41490
O         24.57029        22.06390        -3.34303
O         30.40867        20.99324        -2.06761
O         23.94741        39.82885        -0.31156
O         25.77407        36.72077         2.97627
O         21.15142        39.56480        -0.02806
O         23.08686        10.53345        -1.44358
O         31.06203        32.75314        -0.55553
O         28.18216        49.99632         1.77868
O         33.61051        24.84420        -1.70209
O         19.81437        29.61094        -1.83641
O         23.81831        37.25935         0.15963
O         21.45815        32.77814         2.50561
O         24.71532        26.36815        -2.95468
O         19.97138        35.33999         3.01594
O         33.91782        30.85823         2.02948
O         25.89360        27.53717         0.65432
O         17.58984        48.67922         2.77220
O         25.02760        16.05165        -2.77214
O         27.07330        29.97771         1.47327
O         12.73831        26.32732         1.15526
O         16.80947        31.00858         2.22814
O         14.78024        44.22907         2.93329
O         24.24598        56.49876        -0.21388
O         17.07421        42.91679         3.12419
O         22.88137        49.43636        -0.93058
O         32.69605        22.82465         1.18068
O         27.55637        15.81804         0.77702
O         15.96547        19.51340        -0.62698
O         11.29361        39.95603        -0.48756
O         27.91006        32.90532         2.20541
O         22.50240        25.18224        -2.98095
O         28.83423        46.33653         2.31438
O         21.48950        20.57690        -0.45260
O         18.40806        14.95329        -3.43715
O         16.71254        17.48811        -3.72877
O         13.60223        44.27576        -0.54102
H         12.78316        44.49805        -1.03185
O          8.43584        40.01578         0.30106
H          8.76408        40.01138        -0.62290
O         29.51099        26.22559        -1.90112
H         29.65336        27.03436        -2.43623
O         39.82233        30.71556         1.46764
H         39.82160        31.56968         1.94869
O         23.12720         9.61219         3.46152
H         22.29290         9.84130         3.92346
O         22.99736        16.50120         0.27193
H         23.58530        15.93459         0.81493
O         22.19489        38.36801         3.26346
H         21.31198        38.60070         3.62651
O         27.89459        44.46811        -0.73324
H         27.78525        43.53094        -1.00075
O         26.03887        54.98386         0.83222
H         25.68411        55.89959         0.91975
O         34.27041        42.48676         2.29619
H         34.94189        43.11610         2.63133
O         27.65043        16.30207        -2.83044
H         26.99104        16.53795        -3.52070
O         16.04714        16.39102        -0.38147
H         15.26290        16.11908         0.14012
O         14.42825        30.36233         2.73431
H         15.33238        30.20086         3.09367
O         33.98250        18.41680        -1.32781
H         33.48543        18.66822        -2.13389
O         23.38720        32.52217        -1.29576
H         22.97137        31.89425        -1.94234
O         35.78307        26.94054         1.53281
H         36.56629        27.36755         1.94047
O         37.79971        40.14010        -0.60034
H         37.30231        40.02755        -1.43597
O         31.44691        47.88425        -1.92567
H         32.09988        47.29030        -2.35007
O         23.73922         7.29256         0.72419
H         24.49215         7.13894         0.11580
O         22.17927        30.34884        -2.25861
H         21.25356        30.36333        -2.61710
O         33.29030        41.61287        -1.12242
H         32.51447        41.12749        -1.47281
O         21.73134        22.44048        -3.25832
H         22.57786        22.33157        -3.75502
O         29.02974        25.65071         1.66574
H         28.85304        24.82974         2.16902
O          6.70529        28.86884         2.08171
H          7.41010        29.15711         2.69869
O         27.23266        44.02106         2.84125
H         26.49567        43.60677         3.33592
O         26.60419        28.07279        -2.61314
H         26.21204        27.51766        -3.32676
O         13.32196        35.79088        -1.06349
H         13.14468        34.84906        -1.30942
O         32.00150        28.95473         2.05227
H         32.69376        29.50255         2.49706
O         19.10846        13.00892         0.69352
H         19.07867        12.17151         1.20553
O         29.55662        34.38155         3.12082
H         29.72318        35.00625         3.85833
O         31.58201        14.08527         0.63503
H         31.74817        13.92420        -0.31637
O         22.33281        51.26746         2.21740
H         21.62790        51.81347         2.62585
O         23.33947        35.84832         3.52180
H         22.82008        36.63326         3.81592
O         31.44076        46.11106         2.30166
H         30.70155        46.09313         2.95191
O         32.48280        34.96408         3.41579
H         32.25116        35.78526         3.90481
O         21.03149        23.07947         0.30141
H         21.05264        22.11999         0.53180
O         28.67941        18.91203        -3.07266
H         27.93047        19.41902        -3.51313
O         19.76558        18.22177        -4.08938
H         20.65069        17.81320        -4.24480
O         21.14945        46.15748         3.10334
H         20.38028        45.88189         3.64623
O         39.54827        29.75502        -2.03928
H         38.70955        30.13978        -2.36695
O         12.06581        26.06134        -2.42270
H         12.02142        25.35891        -3.10541
O         24.98822        30.11587        -1.98475
H         24.15752        30.37882        -2.44415
O          8.61077        32.99858        -0.92057
H          7.79092        32.70119        -1.36969
O         29.23010        34.92254        -0.48103
H         29.53002        34.40128        -1.25736
H          4.93333        31.01708         0.59283
H          4.89430        33.47881         0.74189
H          7.43581        26.79331        -0.22209
H          6.25290        28.95092         0.07422
H          6.17661        35.65520         0.87089
H          7.43495        37.80536         0.89601
H          9.89303        22.66314        -1.34696
H          8.66312        24.73861        -0.77408
H          9.16315        39.63072         2.18956
H          9.93417        42.12517         1.60659
H         12.29451        18.50323        -2.17779
H         11.10037        20.63327        -1.89313
H         11.11311        44.27678         1.32876
H         12.38701        46.48506         0.94658
H         14.77819        14.10019        -1.80194
H         13.54271        16.25422        -2.21129
H         13.56081        48.59181         0.91083
H         14.79698        50.69738         0.63617
H         17.14776         9.92629        -0.76671
H         16.00372        11.91198        -1.63450
H         15.96302        52.60241        -0.16363
H         17.18724        54.61721        -1.08579
H         19.43885         6.20771         1.94678
H         18.03575         8.15232         0.48454
H         18.32764        56.51203        -2.03744
H         19.46164        58.24710        -3.33631
H         22.19001         4.00714         5.03106
H         20.23015         4.91419         3.81657
H         22.72828        60.96674        -5.57273
H         20.61624        59.96817        -4.71994
H         24.41512         5.12293         4.85192
H         25.82856         6.93332         3.98272
H         26.27163        58.29494        -3.77596
H         24.93690        60.03294        -4.90629
H         27.36115         8.48514         2.58077
H         28.69980        10.14669         1.51116
H         28.86095        54.64705        -1.92316
H         27.57706        56.50714        -2.72456
H         30.08243        12.15806         0.91026
H         30.23780        15.03038         1.86216
H         31.32738        50.58308        -1.06789
H         30.14624        52.69013        -1.28278
H         32.59921        16.30942         0.56176
H         33.77020        18.45748         0.71628
H         33.82097        46.28741        -0.78472
H         32.74517        48.49074        -0.39886
H         35.31213        20.43010        -0.36442
H         36.63389        22.50288        -0.99676
H         36.60531        42.21325         0.43660
H         35.27001        44.35726         0.05223
H         38.05392        24.72644        -0.73069
H         39.14574        26.98927        -0.86033
H         38.98310        37.95046        -0.20008
H         37.57342        39.82845         1.41475
H         40.34801        29.02432        -0.28722
H         41.58477        31.31100        -0.73290
H         41.42848        33.75703        -0.92715
H         40.19079        35.84975        -0.53238
