         300
 CSIRO Nanostructure Databank - Neutral Graphene Oxide Data Set
C         30.35255        31.86901        -0.57095
C         30.42184        33.09488        -0.43104
C         30.36782        36.09793         0.74565
C         30.34284        37.29676         1.03489
C         30.32804        40.50175         0.86916
C         30.26687        41.43728         0.08048
C         32.77298        29.11129        -1.11062
C         31.62375        29.59711        -0.91346
C         32.74734        31.79199        -0.71396
C         31.42581        31.06825        -1.25517
C         32.85735        33.32911        -0.81359
C         31.50582        34.06972        -0.49906
C         32.78602        36.08124         0.51957
C         31.52228        35.41200         0.14627
C         32.70715        37.45708         1.04621
C         31.42388        38.29262         0.71123
C         32.71495        40.42350         1.01932
C         31.41089        39.63837         1.42622
C         32.70307        41.59029         0.07025
C         31.38429        42.01784        -0.72284
C         32.64371        44.04687        -1.04526
C         31.55672        43.51448        -0.81091
C         35.53451        27.49780        -1.61173
C         35.29998        28.95024        -1.55397
C         34.07241        29.61848        -1.17454
C         35.33246        31.84805        -0.71944
C         34.06310        31.03611        -0.71112
C         35.33211        33.19626        -0.05298
C         34.02942        33.92863         0.01294
C         35.29006        35.94687         0.96891
C         34.10260        35.46794         0.09859
C         35.27668        37.38195         1.44564
C         33.96978        38.18519         1.41656
C         35.18782        40.04987         0.32560
C         34.06640        39.72333         1.35301
C         35.20306        41.52941        -0.07327
C         34.03206        42.15677        -0.37258
C         35.23937        44.40633        -0.77705
C         34.01832        43.57300        -0.92930
C         35.42162        45.85393        -0.61635
C         37.96553        27.52518        -1.67834
C         36.58755        26.86498        -1.73255
C         37.71535        28.66646        -0.64294
C         36.64143        29.65227        -1.18915
C         37.85587        31.78438        -0.24420
C         36.65570        31.12537        -0.83139
C         37.88628        33.13725         0.00405
C         36.63411        34.01882        -0.19050
C         37.88735        35.90509         1.06249
C         36.60345        35.19271         0.80520
C         37.89325        37.36345         1.53195
C         36.53889        38.21954         1.73289
C         37.49707        40.47302         1.12350
C         36.49718        39.55784         0.95713
C         37.72427        41.69898         0.40189
C         36.52395        42.24312        -0.37054
C         37.72484        44.49922        -0.19111
C         36.40334        43.74593         0.00897
C         37.67781        45.97400         0.23533
C         36.36007        46.51317        -0.15331
C         40.22348        24.50834        -0.94988
C         39.26811        25.19846        -1.32504
C         40.35241        27.24828        -0.56355
C         39.17781        26.66887        -1.33607
C         40.23955        28.56709         0.20459
C         38.94369        29.39831        -0.04872
C         40.21978        31.56600         0.80175
C         38.96783        30.89639         0.20492
C         40.29942        33.07685         0.57728
C         39.14532        33.79771         0.38184
C         40.41555        35.96221         0.84330
C         39.13324        35.32657         0.34491
C         40.46974        37.30052         1.02935
C         39.24974        38.04963         1.41237
C         40.48570        40.15608         0.81027
C         39.41635        39.49576         1.44731
C         40.30902        41.54171         0.11504
C         38.97114        42.31397         0.32141
C         40.29740        44.56982         0.01167
C         39.01930        43.74548        -0.13463
C         40.26943        46.04005         0.34825
C         38.91704        46.71709         0.60308
C         40.24509        48.74551         0.58678
C         39.13072        48.17000         0.67428
C         42.71917        24.31978        -0.02799
C         41.65581        24.97992        -0.86142
C         42.76748        27.15880         0.21082
C         41.52314        26.41884        -0.21131
C         42.78926        28.62688        -0.35458
C         41.50907        29.38611        -0.09762
C         42.89261        31.39884         0.73377
C         41.54610        30.76291         0.51808
C         42.88479        32.90909         0.97935
C         41.59315        33.69887         1.00471
C         42.86093        35.90745         0.49025
C         41.69064        35.22583         1.17567
C         42.88484        37.26084         0.40819
C         41.80381        38.03383         1.16654
C         42.90012        40.15535         0.32028
C         41.68461        39.46481         0.68103
C         42.88039        41.63379         0.53499
C         41.57479        42.36222         0.44338
C         42.89260        44.56917         0.38459
C         41.61849        43.82764         0.10929
C         42.85676        46.00296         0.83608
C         41.54486        46.74534         0.80778
C         42.88028        48.74382         0.64241
C         41.55922        48.27324         0.68363
C         43.77086        24.94531         0.16435
C         45.38491        27.06382        -0.09207
C         44.07202        26.36310        -0.05875
C         45.46115        28.57074        -0.03326
C         44.20441        29.36797        -0.46353
C         45.34882        31.48392        -0.01777
C         44.22785        30.64984         0.54716
C         45.29518        32.96386         0.12177
C         44.18568        33.72706         0.84100
C         45.25329        35.89315        -0.06828
C         43.97283        35.03233        -0.03762
C         45.15581        37.18646        -0.87828
C         43.82743        38.01053        -0.51945
C         45.14211        40.27282        -0.75269
C         44.00580        39.47244        -0.13169
C         45.36589        41.62582        -0.09733
C         44.18632        42.36382         0.42720
C         45.30185        44.55617        -0.00820
C         44.20441        43.84802         0.43926
C         45.33791        46.01448         0.15014
C         44.27868        46.71036         0.96722
C         43.97315        48.13764         0.54705
C         47.75101        27.13736         0.49306
C         46.69877        26.52838         0.27597
C         47.97198        28.58116         0.33475
C         46.62865        29.25902         0.11682
C         47.78130        31.50110         0.56693
C         46.70542        30.75107        -0.24922
C         47.86727        32.98544         0.30936
C         46.59265        33.71118         0.03477
C         47.85536        35.84339        -0.35143
C         46.56914        35.20858         0.08958
C         47.79882        37.29966        -0.67098
C         46.46421        38.01855        -0.84613
C         47.75595        40.25092        -0.44771
C         46.46671        39.51400        -0.86320
C         47.72212        41.73731        -0.78492
C         46.55782        42.39491        -0.57629
C         47.65170        44.60455        -1.15677
C         46.33585        43.84974        -0.88308
C         47.43289        45.90558        -0.90493
C         46.48803        46.59447        -0.33493
C         50.31916        28.81095         1.59814
C         49.14529        29.35171         0.87889
C         50.09832        31.71118         1.84368
C         48.95751        30.83420         1.21304
C         50.30848        33.03884         1.05130
C         48.98776        33.84906         0.90483
C         50.23997        36.04651         0.60024
C         49.19159        35.11976        -0.00298
C         50.28997        37.49407         0.08803
C         49.03239        38.13584        -0.42404
C         50.25906        40.36685        -0.70085
C         49.02562        39.53729        -1.04349
C         50.22357        41.69235        -1.37154
C         49.02012        42.51705        -0.95503
C         50.11554        44.36911        -1.93693
C         48.72882        43.81612        -1.84112
C         51.27890        29.57621         1.91443
C         52.56613        31.84453         1.82887
C         51.50809        30.94020         1.90126
C         52.67458        33.07195         1.52961
C         51.46099        33.96326         1.77864
C         52.56444        36.33691         1.11171
C         51.43012        35.42248         1.31867
C         52.59217        37.50730         0.71453
C         51.65376        38.18350        -0.26047
C         52.63459        40.58676        -0.68323
C         51.54895        39.70309        -0.24073
C         52.60265        41.75795        -1.09931
C         51.51243        42.35660        -1.96527
C         51.22667        43.83561        -1.89095
O         33.23856        31.22931         0.50012
O         49.03908        29.03559        -0.52013
O         42.13537        42.04857         1.74257
O         42.18171        33.12324         2.23457
O         40.23242        41.33077        -1.23333
O         47.90277        36.29855        -1.73436
O         38.08133        46.12090         1.62559
O         41.96487        29.08282        -1.44016
O         32.61802        41.78493         1.52278
O         36.18210        29.53104        -2.55053
O         38.49139        40.21923         2.12445
O         42.22748        30.67281         1.81529
O         44.37083        29.80023        -1.72343
O         38.46324        29.94770         1.21837
O         44.91258        32.31338        -1.11946
O         40.29485        27.24826        -2.06663
O         36.06760        31.87989        -1.95049
O         44.73478        26.61190        -1.30887
O         38.72390        37.50389         2.69843
O         31.34006        35.22827        -1.33057
O         36.65901        34.62391        -1.47651
O         37.32529        34.99439         2.05207
O         40.37031        45.60119        -1.02380
O         42.08152        46.21191         2.06570
O         45.65933        43.73916        -2.25835
O         50.68586        40.35016         0.71752
O         45.94953        35.93149         1.19896
O         49.41924        38.23942         0.97454
O         38.37991        44.12606        -1.42156
O         33.08868        37.69115         2.45434
O         46.53889        38.78756        -2.11938
O         43.07167        38.18955        -1.81752
O         42.45582        44.26966        -1.00929
O         47.73063        31.09765         1.97012
O         50.35677        36.07789         2.04674
O         35.07554        36.25801         2.35945
O         34.92163        43.83597        -2.04167
O         47.48503        33.30719        -1.05409
O         45.17863        41.72221         1.33321
O         34.55946        33.25707         1.18016
O         49.75836        34.72300        -1.26684
H         49.02662        34.37619        -1.83258
O         34.87435        39.28137        -0.85382
H         35.36270        39.65955        -1.61683
O         48.54466        34.29283         2.18516
H         48.76007        33.59901         2.85580
O         31.34133        31.21655        -2.63302
H         30.46504        30.92479        -2.95623
O         41.90028        35.46093         2.60702
H         41.14449        35.07350         3.09974
O         44.65053        46.66576         2.32049
H         43.85737        46.86367         2.86801
O         50.76951        32.59606        -0.21354
H         50.69110        33.32708        -0.87931
O         42.19386        38.13410         2.54967
H         42.23747        37.21158         2.90852
O         40.23336        28.19942         1.59620
H         39.79067        28.93500         2.09031
O         51.69203        41.97027        -3.29658
H         52.38220        42.52580        -3.71143
O         34.37308        35.93035        -1.25152
H         35.26468        35.50700        -1.53862
O         39.04580        35.72559        -1.04317
H         38.19303        35.32283        -1.42374
O         42.43453        36.93770        -2.17826
H         41.47711        37.18218        -2.23236
O         44.97928        44.97591        -2.55688
H         44.02458        44.74515        -2.41051
O         47.77635        40.14808         0.97926
H         48.61410        40.53179         1.32331
O         33.16929        33.59326        -2.17946
H         33.31433        34.56556        -2.28201
O         37.13736        27.98595         0.48708
H         37.18838        28.57685         1.27258
O         31.39594        38.56496        -0.67201
H         31.31924        37.72711        -1.17725
O         36.77104        42.03239        -1.76059
H         37.57174        42.55016        -2.02253
O         44.63902        34.03206         2.15171
H         43.85636        34.27976         2.69608
O         36.50636        38.54178         3.11994
H         36.39129        37.70486         3.61963
O         49.32689        42.99975         0.38054
H         50.20414        43.44212         0.35844
O         42.14674        25.11971        -2.16247
H         41.59927        25.78639        -2.63871
O         47.00791        30.79547        -1.63463
H         46.18002        30.51518        -2.10493
O         49.01741        39.50032        -2.46630
H         48.20362        39.03591        -2.77664
O         31.43434        41.44962        -1.99468
H         30.60988        41.64879        -2.48242
O         44.69556        40.59759        -2.08709
H         44.72064        39.77932        -2.63124
O         48.28253        43.42307        -3.12314
H         47.37915        43.77943        -3.28889
O         31.36856        39.50215         2.82261
H         31.32876        40.39924         3.21486
O         43.62189        34.55155        -1.33445
H         43.65796        35.30468        -1.97381
O         34.48695        40.19480         2.62799
H         33.91410        39.78677         3.31159
O         42.79847        27.37697         1.64626
H         41.87772        27.59688         1.94736
O         45.02811        36.71061        -2.22379
H         45.25721        37.44096        -2.84003
O         38.19085        28.12081        -2.93108
H         38.48835        27.44732        -3.57629
O         51.26121        33.97220         3.16709
H         51.04464        34.88116         3.46848
O         39.98736        31.48072         2.22511
H         40.79008        31.84632         2.67109
O         49.71399        32.00464         3.17575
H         49.16700        31.27410         3.53510
O         44.65073        30.19881         1.82286
H         43.85766        29.91957         2.33741
O         51.98733        37.79334        -1.58256
H         52.76046        38.31282        -1.88931
O         36.06786        43.77608         1.39891
H         36.09704        44.70049         1.72717
