         349
 CSIRO Nanostructure Databank - Neutral Graphene Oxide Data Set
C          1.30055         3.89544         0.98310
C          0.10295         4.54745         0.83293
C          1.14854         6.39238        -0.43258
C          0.02026         5.76918         0.12253
C          1.14046         7.79348        -0.69488
C         -0.05743         8.54534        -0.71793
C          1.16847        10.62350        -0.32339
C         -0.04884         9.92677        -0.62111
C          1.14852        12.00874         0.32804
C         -0.13266        12.76950         0.10493
C          1.02063        14.77646        -0.75952
C         -0.19278        14.02269        -0.36629
C          1.01482        16.29698        -0.93085
C         -0.21138        17.07412        -0.70715
C          1.06682        19.16678        -0.51910
C         -0.16773        18.41434        -0.50375
C          1.09199        20.56210        -0.19180
C         -0.10175        21.30084         0.08178
C          1.10468        23.39030         0.48127
C         -0.08502        22.66662         0.37211
C          1.15014        24.79984         0.80908
C          0.02135        25.42867         1.47681
C          1.15144        27.61523         1.57111
C          0.04899        26.71043         1.92280
C          1.38644        28.86545         2.31242
C          3.76860         3.70950         0.51383
C          2.45386         4.27643         0.17345
C          3.64799         6.28739        -1.17767
C          2.38316         5.59658        -0.62134
C          3.70336         7.75856        -0.74868
C          2.41633         8.54890        -1.00000
C          3.61432        10.62398        -0.00052
C          2.36457         9.94744        -0.40019
C          3.65451        12.11941        -0.01369
C          2.38171        12.81060        -0.03792
C          3.52584        14.95127        -0.42135
C          2.31142        14.12931        -0.42776
C          3.49431        16.34684        -0.91906
C          2.30226        17.04341        -0.90585
C          3.50533        19.22225        -0.83515
C          2.28780        18.49503        -0.81325
C          3.54215        20.60216        -0.50225
C          2.33800        21.24576        -0.14459
C          3.53774        23.43319        -0.18748
C          2.40890        22.63775         0.42672
C          3.53853        24.91546         0.03697
C          2.33007        25.52511         0.63584
C          3.68002        27.63717         1.02413
C          2.37459        26.96461         0.90015
C          3.72933        28.95130         1.55079
C          2.56707        29.52270         2.21185
C          6.18666         3.53316         0.31990
C          4.94008         4.24274         0.07607
C          6.26047         6.25480        -0.72031
C          4.99073         5.37241        -0.95503
C          6.19740         7.78006        -0.63792
C          4.87253         8.43295        -0.56907
C          6.15284        10.61380        -0.20048
C          4.89090         9.85783        -0.11582
C          6.10431        12.05996        -0.59655
C          4.84773        12.78783        -0.17341
C          6.12405        15.00236        -0.52513
C          4.85913        14.25894        -0.18762
C          6.05534        16.24857        -1.40306
C          4.74379        17.03009        -1.29937
C          6.03940        19.25113        -1.12349
C          4.74698        18.55165        -1.24462
C          6.03516        20.66493        -0.88557
C          4.80866        21.33165        -0.55810
C          6.03094        23.46786        -0.30290
C          4.82614        22.72704        -0.34683
C          6.01950        24.87980         0.01339
C          4.84483        25.59339         0.17633
C          6.08404        27.71408         0.59471
C          4.86937        26.98855         0.61279
C          6.10929        29.05419         1.01577
C          4.95206        29.64744         1.53422
C          8.65833         3.51267         0.53254
C          7.40789         4.16090         0.24866
C          8.70360         6.32335         0.02262
C          7.34781         5.66770         0.17883
C          8.68161         7.83638        -0.10729
C          7.38380         8.51619        -0.19280
C          8.63180        10.67146         0.00224
C          7.36837         9.93053        -0.09063
C          8.58803        12.10292        -0.27703
C          7.40932        12.78903        -0.35835
C          8.59439        14.88377        -1.30182
C          7.41407        14.26475        -0.55298
C          8.58136        16.40493        -1.18980
C          7.30678        17.09627        -1.23941
C          8.50893        19.25558        -1.35267
C          7.24157        18.50137        -1.17944
C          8.48619        20.75718        -1.37317
C          7.24324        21.42760        -0.93104
C          8.52462        23.49440        -0.36856
C          7.27123        22.78445        -0.52806
C          8.57073        24.84290        -0.04943
C          7.31686        25.55958         0.40329
C          8.61140        27.70122         0.46777
C          7.31909        27.04294         0.02759
C          8.63385        29.05904         0.86164
C          7.36627        29.88314         0.89601
C         11.05782         3.57557         1.23402
C          9.83527         4.21374         0.78447
C         10.87812         6.41546         1.20703
C          9.84561         5.65321         0.67956
C         10.67790         7.83909         1.28178
C          9.77517         8.58760         0.54511
C         11.04037        10.86645         0.66093
C          9.79544        10.03784         0.43388
C         11.06309        12.24597         0.07909
C          9.88855        12.73748        -0.73596
C         11.06119        14.93014        -0.77781
C          9.87737        14.24607        -0.82337
C         11.06784        16.42678        -0.64281
C          9.76748        17.08884        -1.03491
C         11.05028        19.24422        -1.34861
C          9.77044        18.58579        -0.85800
C         11.06189        20.74479        -1.41918
C          9.77365        21.58563        -1.42804
C         11.05791        23.49560        -0.48984
C          9.79696        22.67869        -0.36637
C         11.04719        24.88130        -0.18663
C          9.81649        25.55688         0.04644
C         11.05938        27.65489         0.56972
C          9.81896        26.97225         0.36670
C         11.07446        29.00679         1.03827
C          9.83533        29.68027         1.19555
C         13.40180         3.58631         2.08801
C         12.19713         4.27186         1.54205
C         13.47785         6.63116         1.30142
C         12.18515         5.78158         1.55376
C         13.56552         8.10221         1.07660
C         12.51541         8.98162         1.36439
C         13.56577        10.80277         0.20135
C         12.39340        10.24274         0.78442
C         13.57303        12.16942        -0.24877
C         12.35921        12.89241        -0.25959
C         13.55778        14.89286        -1.07474
C         12.32168        14.23646        -0.62649
C         13.54332        16.36055        -1.41984
C         12.31378        17.13603        -1.14405
C         13.58500        19.25088        -1.25599
C         12.33427        18.50712        -1.19891
C         13.55895        20.67705        -1.08154
C         12.32447        21.42321        -1.06123
C         13.51979        23.49487        -0.38843
C         12.26741        22.78572        -0.70279
C         13.49614        24.96809        -0.38301
C         12.29959        25.62798        -0.16026
C         13.50347        27.70426         0.49590
C         12.29988        27.01863         0.26230
C         13.53276        29.01953         1.06276
C         12.30794        29.65843         1.30831
C         15.98637         3.73906         1.94155
C         14.60453         3.87734         1.51081
C         15.88155         6.44701         0.56387
C         14.64385         5.92389         0.70925
C         16.00420         7.91025         0.67962
C         14.74706         8.69130         0.57346
C         15.98397        10.60743        -0.50281
C         14.76323        10.03832         0.18462
C         16.04154        12.10743        -0.49967
C         14.82421        12.83065        -0.54516
C         16.07800        14.92506        -0.92636
C         14.84392        14.21348        -0.85378
C         16.09442        16.36142        -1.06749
C         14.87564        17.09270        -1.62831
C         16.04421        19.23451        -1.11102
C         14.81365        18.55167        -1.24009
C         16.02074        20.64686        -1.00997
C         14.80797        21.34548        -0.93280
C         16.09628        23.54426        -0.56337
C         14.81798        22.75920        -0.49817
C         16.08407        25.03046        -0.49379
C         14.75295        25.71695        -0.47230
C         16.06649        27.56814         0.68921
C         14.77122        27.12903         0.03865
C         16.03188        29.03755         1.05086
C         14.80157        29.66274         1.28120
C         18.36145         4.15348         2.07317
C         17.07391         4.43715         1.45552
C         18.39851         6.26229         0.15137
C         17.05484         5.48562         0.32383
C         18.48110         7.75946         0.05879
C         17.28080         8.58164         0.36592
C         18.49366        10.63989        -0.22308
C         17.27830         9.98387        -0.07348
C         18.50995        12.03453        -0.54685
C         17.28718        12.76968        -0.63301
C         18.54310        14.92000        -0.71873
C         17.29896        14.20687        -0.77084
C         18.52732        16.34768        -0.67045
C         17.28679        17.06445        -0.87933
C         18.49406        19.23064        -0.72777
C         17.30750        18.52492        -0.94681
C         18.55476        20.66310        -0.83788
C         17.30349        21.37236        -1.12698
C         18.58218        23.57712        -0.77262
C         17.32418        22.86864        -1.05943
C         18.59179        25.05239        -0.89620
C         17.28894        25.87405        -0.93730
C         18.50856        27.75544         0.24765
C         17.33855        27.11945        -0.03158
C         18.49972        28.99072         1.04902
C         17.26937        29.64364         1.33023
C         19.54859         4.61458         1.62820
C         20.91274         6.37790         0.54110
C         19.69167         5.48799         0.40443
C         20.94497         7.72543         0.42573
C         19.75582         8.52054         0.19756
C         20.93387        10.72065         0.21181
C         19.74008         9.90291         0.06051
C         20.96457        12.02642        -0.12954
C         19.82350        12.70757        -0.85206
C         20.96126        14.94085        -0.56279
C         19.78153        14.21456        -0.66844
C         20.94038        16.33710        -0.41597
C         19.74745        17.04998        -0.47020
C         20.98085        19.28890        -0.45174
C         19.71021        18.53021        -0.16074
C         20.97756        20.63434        -0.57677
C         19.73918        21.39105        -0.65221
C         20.93145        23.57986        -0.14895
C         19.75438        22.85369        -0.59918
C         20.96687        24.93524        -0.04251
C         19.88976        25.77944        -0.59248
C         21.03517        27.85276         0.33029
C         19.82860        27.31889        -0.39803
C         20.95510        28.91008         1.18275
C         19.70778        29.52826         1.49386
O         14.74660        26.86651        -1.40101
O          0.94967        15.37510        -2.09073
O         11.48296         8.52897         2.18649
O         14.17499        22.91435         0.81785
O          6.58662         7.02062        -1.85975
O          3.22715        24.31871        -1.29421
O         14.44569         4.60438         0.31157
O          4.57618        17.82168        -2.52646
O          5.26688         4.72281        -2.13999
O         16.37930        24.24790         0.69752
O          4.16661        14.89597         0.92600
O         13.35980        15.37394        -2.49440
O          9.04105         6.95136        -1.23846
O         19.53311        25.42565        -1.96076
O         18.40596         6.92498        -1.16317
O         10.81108        12.06092         1.50246
O          4.21757        10.02519         1.22022
O          7.03205        15.07380         0.61714
O          2.14433         4.32596        -1.26783
O         16.85943         8.40560         1.79046
O          1.38415        27.73582         0.13377
O         17.28469        22.21882        -2.36103
O          8.43489        19.96753        -2.62205
O         13.01737         6.27763         2.64454
O         11.08423        19.92103        -2.64140
O          3.47535         6.32978        -2.60462
H          4.11751         5.62980        -2.94791
O         15.81945        10.20426        -1.92865
H         16.46328        10.72313        -2.45730
O          6.88762         6.08446         1.51735
H          7.35423         5.54110         2.18788
O          9.85481        21.99596         0.92217
H         10.05645        22.65903         1.61515
O         20.07728        12.49877        -2.28970
H         20.15244        11.53167        -2.43516
O          7.36766        25.52492         1.86491
H          7.30068        24.58858         2.14724
O          9.75834        22.27726        -2.69090
H          9.68964        21.58325        -3.38525
O          6.06454        15.72255        -2.77208
H          5.73229        16.45250        -3.34849
O         16.85534         4.77011        -0.90359
H         17.05006         5.39366        -1.63707
O         19.53666        18.59402         1.30540
H         19.52860        19.54238         1.55606
O          2.41491         8.76766        -2.45082
H          2.70023         7.90671        -2.86104
O          9.73644        18.85230         0.58099
H         10.35992        18.21173         1.01037
O         16.05865        26.85452         1.96760
H         16.84625        27.13967         2.47682
O          7.42933        30.86627         1.93429
H          7.49915        30.39928         2.79185
O          2.82684        22.47371         1.83803
H          2.15708        21.90840         2.27864
O         19.92674         4.62037        -0.73321
H         19.71753         5.14831        -1.53432
O         15.11667        17.12946        -3.06723
H         14.67520        16.33251        -3.44674
O         10.07243        12.23626        -2.09334
H          9.57636        12.84661        -2.69137
O          7.25465        27.11482        -1.41916
H          7.20236        28.05616        -1.68373
O          5.99593        12.03759        -2.07859
H          6.78844        11.57862        -2.43353
O         19.86179        27.92032        -1.71299
H         19.45793        27.26099        -2.33095
O          8.47926        14.50103        -2.70166
H          7.62353        14.88435        -3.03501
O         17.14059        26.29464        -2.30177
H         16.28665        26.78624        -2.37235
O          1.22374        11.76396         1.76391
H          2.09300        11.35004         1.95620
O         11.17435        16.60955         0.83981
H         10.52851        15.99851         1.25934
H          1.40474         3.06818         1.70023
H         -0.78487         4.19839         1.37879
H         -0.92873         6.32040         0.17717
H         -1.02790         8.03105        -0.76628
H         -1.00185        10.47233        -0.63721
H         -1.06423        12.27035         0.41093
H         -1.17081        14.50662        -0.50428
H         -1.17916        16.55458        -0.72734
H         -1.11297        18.94599        -0.33151
H         -1.07811        20.80533         0.00956
H         -1.04880        23.18456         0.48066
H         -0.83892        24.79608         1.73859
H         -0.76138        27.09227         2.56173
H          0.57214        29.26907         2.93262
H          3.78217         2.81630         1.15917
H          2.70361        30.48435         2.72883
H          6.13316         2.46385         0.57947
H          5.00445        30.67590         1.92013
H          8.65824         2.41651         0.63044
H          7.30518        30.45746        -0.07262
H         11.06041         2.47832         1.31558
H          9.82157        30.72503         1.53891
H         13.29964         2.92325         2.95998
H         12.29551        30.69209         1.68452
H         16.17120         3.05374         2.78618
H         14.79816        30.70169         1.64597
H         18.34925         3.48279         2.94778
H         17.29441        30.64952         1.77691
H         20.47178         4.31160         2.14495
H         21.86049         5.84002         0.69929
H         21.91413         8.23952         0.50992
H         21.83281        10.26125         0.64884
H         21.90103        12.58337         0.01812
H         21.93491        14.43317        -0.56699
H         21.89583        16.85446        -0.25843
H         21.94346        18.75948        -0.43414
H         21.93069        21.16915        -0.69652
H         21.78803        23.00192         0.22674
H         21.82702        25.41497         0.44667
H         22.02255        27.47060         0.03320
H         21.87237        29.33015         1.62082
H         19.69917        30.44287         2.10374
