         621
 CSIRO Nanostructure Databank - Neutral Graphene Oxide Data Set
C          5.92551        31.89636         0.02278
C          5.95696        33.23947         0.29762
C          8.38718        27.63653        -0.66662
C          8.33738        29.01574        -0.69277
C          7.11660        29.76594        -0.48473
C          8.41029        31.83163        -0.10509
C          7.11336        31.12384        -0.24353
C          8.45536        33.28257         0.25430
C          7.17404        34.01488         0.35090
C          8.42274        36.14414         0.42348
C          7.19055        35.38725         0.45948
C          8.42153        37.53245         0.68043
C         10.88551        23.32261        -0.76067
C         10.87911        24.75032        -0.71537
C          9.65549        25.48490        -0.58148
C         10.86328        27.60185        -0.68192
C          9.63768        26.90457        -0.67844
C         10.91552        29.03275        -0.95876
C          9.57677        29.76508        -0.99592
C         10.91631        31.97655        -0.67119
C          9.60243        31.24466        -0.78667
C         10.92438        33.38297        -0.19775
C          9.70694        34.04976         0.03933
C         10.88517        36.20969        -0.04612
C          9.64642        35.45499         0.16260
C         10.85909        37.71358         0.21179
C          9.60073        38.31436         0.68351
C         10.81719        40.47002         0.99827
C          9.64772        39.65400         1.08908
C         10.66349        41.80632         1.44779
C         13.24365        18.96009        -0.65316
C         13.27747        20.37557        -0.70296
C         12.10467        21.15071        -0.68926
C         13.33052        23.28462        -0.85847
C         12.10455        22.58878        -0.75407
C         13.35465        24.75585        -1.22615
C         12.10090        25.45480        -0.78449
C         13.37923        27.64579        -0.59145
C         12.11708        26.87569        -0.29823
C         13.38483        29.02693        -0.59160
C         12.15597        29.80515        -0.67101
C         13.38688        31.92489        -0.15474
C         12.16107        31.18370        -0.57204
C         13.44254        33.39848        -0.17655
C         12.17353        34.09598        -0.14169
C         13.40833        36.19275         0.26968
C         12.15340        35.48132         0.00239
C         13.37695        37.66015         0.52874
C         12.11236        38.43552         0.47962
C         13.40433        40.46234         0.78755
C         12.09718        39.80399         0.66194
C         13.49400        41.85564         0.77924
C         11.60935        42.84501         1.21282
C         13.18625        44.71340         1.57627
C         11.90787        44.03951         1.83722
C         13.21965        46.10354         1.52094
C         15.59232        14.48224        -0.68743
C         15.59446        15.96957        -0.34999
C         14.39262        16.79118        -0.64407
C         15.73772        18.88016        -0.97300
C         14.42736        18.17486        -0.67271
C         15.76122        20.36070        -0.62118
C         14.57089        21.05143        -0.69689
C         15.88959        23.24188        -0.79281
C         14.57118        22.51360        -0.91197
C         15.88974        24.74245        -0.79313
C         14.61145        25.50309        -0.81145
C         15.86500        27.60618        -0.33806
C         14.60440        26.86408        -0.61948
C         15.95056        29.05879        -0.64704
C         14.65993        29.79380        -0.69977
C         15.97899        31.96211        -0.26751
C         14.69870        31.20300        -0.21365
C         15.93254        33.38262        -0.19848
C         14.68347        34.06739        -0.17829
C         15.93419        36.22385         0.40087
C         14.71416        35.59342        -0.28090
C         15.87673        37.55337         0.78920
C         14.69679        38.38145         0.35024
C         15.79547        40.45073         1.30586
C         14.62829        39.76509         0.92512
C         15.75389        41.83064         1.57625
C         14.56842        42.56584         1.34022
C         15.65106        44.71179         1.72263
C         14.45547        43.99974         1.53702
C         15.68170        46.10757         1.45765
C         14.43747        46.80625         1.28062
C         15.65458        48.80076         0.54471
C         14.44338        48.15110         0.87216
C         15.66188        50.12532         0.03458
C         18.48938        10.60473        -1.91547
C         18.34437        11.84131        -1.26171
C         17.09183        12.56012        -1.24809
C         18.15124        14.53494        -0.29285
C         16.97756        13.85037        -0.77778
C         18.17037        15.91052        -0.03767
C         16.88749        16.67262        -0.11889
C         18.18387        18.85867        -0.01681
C         16.97872        18.12242        -0.49728
C         18.14734        20.33313         0.08020
C         17.02420        21.04389        -0.31692
C         18.20537        23.18339         0.15403
C         17.06168        22.50416        -0.26635
C         18.17667        24.67084         0.41459
C         17.14474        25.41707        -0.38875
C         18.44260        27.57907        -0.44897
C         17.13486        26.88575        -0.14459
C         18.37267        29.06436        -0.14250
C         17.20099        29.78393        -0.29274
C         18.47592        31.94464        -0.18219
C         17.18238        31.22638        -0.26504
C         18.51025        33.44671        -0.13321
C         17.20922        34.22846        -0.34970
C         18.38546        36.19088         0.79142
C         17.17863        35.53412         0.41921
C         18.37325        37.55070         1.22383
C         17.06415        38.20626         1.36226
C         18.31724        40.43555         1.78002
C         17.03363        39.69821         1.64976
C         18.27013        41.81417         1.98843
C         16.95834        42.51010         2.07929
C         18.15623        44.83234         2.36289
C         16.88542        44.01484         2.16067
C         18.18224        46.10458         1.52474
C         16.92064        46.76755         1.23040
C         18.11406        48.75518         0.39212
C         16.89694        48.09199         0.72319
C         18.09291        50.05894        -0.08406
C         16.86372        50.78348        -0.28302
C         18.07273        52.80660        -1.11771
C         16.88555        52.13701        -0.75406
C         18.12719        54.11210        -1.62769
C         20.87239         6.47555        -3.23239
C         20.46877         7.52103        -2.35331
C         19.73890         8.65511        -2.66019
C         20.76832        10.34661        -1.03188
C         19.66131         9.83123        -1.80372
C         20.70142        11.68843        -0.56735
C         19.48425        12.39793        -0.62397
C         20.61978        14.45174         0.45832
C         19.34759        13.72712        -0.00735
C         20.58763        15.91596         0.49732
C         19.36465        16.59809         0.32799
C         20.58442        18.80738         0.79857
C         19.30419        18.06965         0.59741
C         20.60836        20.29295         0.69972
C         19.28973        21.01529         0.80698
C         20.61468        23.16514         0.66483
C         19.40241        22.48417         0.50521
C         20.64862        24.61075         0.57173
C         19.51691        25.37049         0.36733
C         20.74215        27.50028         0.51621
C         19.59148        26.82418         0.20826
C         20.88553        28.95899         0.31783
C         19.65528        29.76713        -0.00834
C         20.84251        31.86800         0.61534
C         19.67565        31.20968         0.24906
C         20.85226        33.31718         0.78315
C         19.68649        34.08812         0.51305
C         20.83182        36.15225         1.23674
C         19.64209        35.46863         0.82864
C         20.82179        37.57288         1.48375
C         19.56838        38.27990         1.49589
C         20.78535        40.38933         2.04733
C         19.56225        39.69944         1.76886
C         20.74243        41.83312         2.42595
C         19.47017        42.59581         2.18061
C         20.66620        44.74530         2.36821
C         19.42447        43.98023         2.23801
C         20.65574        46.22679         1.80260
C         19.37778        46.71705         1.23511
C         20.70041        48.72218         0.35378
C         19.39055        47.99844         0.49438
C         20.64766        50.20786         0.23848
C         19.34836        50.83981        -0.12301
C         20.63650        52.72557        -1.31660
C         19.34600        52.05775        -0.98347
C         20.61633        54.11893        -1.78793
C         19.35802        54.77326        -1.97094
C         20.57995        56.75261        -2.79255
C         19.36659        56.09324        -2.46836
C         20.58817        58.07374        -3.29855
C         23.70928         3.94529        -3.35742
C         22.51440         4.62651        -3.71832
C         23.37334         6.14151        -1.33302
C         21.83423         5.51289        -2.86946
C         23.30052         7.48365        -0.90391
C         22.06320         8.20615        -0.89450
C         23.20342        10.26060        -0.32928
C         22.00432         9.59573        -0.79455
C         23.17649        11.63570         0.02373
C         21.98040        12.44221        -0.32394
C         23.08147        14.44064         0.71071
C         21.92424        13.76976         0.36168
C         23.04859        15.88756         0.82166
C         21.84084        16.58342         0.64572
C         23.07854        18.74107         0.93098
C         21.84562        18.07044         0.39853
C         23.05720        20.22635         0.99764
C         21.78988        20.97576         0.80897
C         23.09216        23.06457         1.02579
C         21.85761        22.43131         0.84791
C         23.20479        24.53622         0.90567
C         21.95463        25.30120         0.63282
C         23.20162        27.45541         1.24321
C         21.91440        26.74647         1.00078
C         23.24348        28.93094         1.09392
C         22.04006        29.68824         0.86967
C         23.21995        31.79464         1.35106
C         22.03932        31.09475         0.91675
C         23.22111        33.18484         1.49606
C         22.03687        33.96906         1.23796
C         23.23515        36.11727         1.68788
C         22.03832        35.40113         1.38056
C         23.24408        37.50488         1.80793
C         22.03651        38.27333         1.75463
C         23.27747        40.44139         2.20110
C         22.02612        39.70370         2.03166
C         23.33309        41.81332         2.43108
C         22.07085        42.60397         2.65478
C         23.01599        45.03023         2.58564
C         21.97335        44.09826         2.47967
C         23.13176        46.27992         1.93394
C         21.94551        46.86803         1.44027
C         23.21154        48.84241         0.64687
C         21.96675        48.12988         0.82444
C         23.21366        50.17906         0.08973
C         21.94905        50.92035        -0.00374
C         23.16658        52.76690        -1.30549
C         21.92364        52.23696        -0.73419
C         23.10750        54.04484        -1.93892
C         21.84364        54.74186        -2.09177
C         23.05685        56.71241        -2.94157
C         21.83366        56.07030        -2.60926
C         23.04359        58.04442        -3.44184
C         21.79705        58.72816        -3.62164
C         23.01466        60.68448        -4.43664
C         21.81260        60.05981        -4.12729
C         24.64539         4.30004        -2.39951
C         25.79359         6.15880        -1.17263
C         24.61442         5.51327        -1.61102
C         25.76052         7.46954        -0.62601
C         24.50480         8.16514        -0.60018
C         25.58104        10.13751         0.35878
C         24.42621         9.52618        -0.20346
C         25.35846        11.37658         0.97533
C         24.27678        12.22182         0.66977
C         25.68166        14.43135         1.02049
C         24.31038        13.65432         1.19490
C         25.63805        15.91263         0.78891
C         24.32046        16.61763         0.77177
C         25.52297        18.73470         0.28028
C         24.33698        17.98334         0.72973
C         25.48930        20.24046         0.30103
C         24.32373        20.95760         0.85726
C         25.63848        22.99789         1.21690
C         24.33198        22.31887         1.01759
C         25.67765        24.50791         1.45509
C         24.42304        25.26734         1.30955
C         25.68637        27.36812         1.24139
C         24.46822        26.67430         1.25038
C         25.70855        28.82996         1.06225
C         24.44775        29.58369         1.19776
C         25.80557        31.72543         1.67546
C         24.44868        31.00348         1.56857
C         25.76178        33.16351         1.60724
C         24.49171        33.86716         1.85007
C         25.76494        36.10227         1.69397
C         24.49694        35.37069         1.92951
C         25.78729        37.45880         1.84825
C         24.50918        38.17814         2.30063
C         25.89746        40.25733         2.24671
C         24.54083        39.65276         1.82056
C         25.92153        41.76796         2.07955
C         24.66301        42.50081         2.33668
C         25.71503        44.65619         1.41188
C         24.83062        43.96460         2.18973
C         25.72134        46.12439         1.39361
C         24.49852        46.98716         1.89084
C         25.65233        49.03780         0.86164
C         24.42157        48.27927         1.07739
C         25.66051        50.27574         0.07145
C         24.40555        50.86136        -0.26027
C         25.61537        52.72328        -1.38518
C         24.38273        52.12474        -0.98095
C         25.58155        53.89916        -2.31950
C         24.31037        54.68760        -2.31559
C         25.54222        56.70116        -3.07639
C         24.29945        56.01358        -2.78568
C         25.50604        58.01468        -3.55609
C         24.27449        58.70114        -3.76221
C         24.23664        60.02365        -4.25824
C         26.92729         8.16370        -0.20993
C         28.11897        10.20575         0.39542
C         26.88996         9.49761         0.26873
C         28.26858        11.62610         0.50497
C         27.19904        12.42956         1.01321
C         28.12603        14.48269         0.21789
C         26.98704        13.76544         0.67554
C         28.08899        15.90729         0.04085
C         26.84041        16.63409         0.24828
C         27.94146        18.76178        -0.46525
C         26.78818        17.99856         0.06650
C         27.97777        20.26784        -0.30415
C         26.75794        21.02216         0.10766
C         28.07315        23.03926         0.77136
C         26.87096        22.36215         0.74094
C         28.13989        24.45996         1.05350
C         26.95869        25.17724         1.22526
C         28.25593        27.36913         1.16827
C         26.94416        26.63301         1.05129
C         28.23490        28.83440         1.48575
C         27.01412        29.57272         1.00581
C         28.32282        31.75156         1.44300
C         27.02741        31.09976         1.00204
C         28.30135        33.14701         1.40226
C         26.99324        33.84722         1.23199
C         28.27649        36.03499         1.36337
C         26.97547        35.36427         1.26333
C         28.24725        37.45769         1.32602
C         27.02320        38.17648         1.55894
C         28.18968        40.28570         1.09361
C         27.03770        39.56869         1.54183
C         28.16519        41.68021         0.87927
C         26.89302        42.39578         1.11565
C         28.00277        44.53386         0.24373
C         26.75589        43.83503         0.70977
C         28.03813        46.01877         0.42151
C         26.86081        46.76260         0.96530
C         28.17777        48.85361         0.25280
C         26.98223        48.23411         0.88096
C         28.12849        50.21928        -0.17379
C         26.88003        50.88512        -0.33604
C         28.08395        52.79791        -1.42004
C         26.83690        52.13951        -1.05065
C         28.04067        54.11164        -1.97415
C         26.83243        54.72705        -2.32453
C         26.77901        56.04478        -2.80188
C         29.39585        12.34799         0.06532
C         30.55703        14.50371        -0.22409
C         29.37140        13.77129         0.02331
C         30.55302        15.91411        -0.31354
C         29.28288        16.58963        -0.24709
C         30.54142        18.76542        -0.54438
C         29.27350        18.02286        -0.55423
C         30.50567        20.23288        -0.63538
C         29.30797        20.90052        -0.01722
C         30.56613        23.14095         0.21045
C         29.33880        22.31821         0.45937
C         30.62226        24.50734         0.80634
C         29.42998        25.14710         1.08404
C         30.77558        27.30840         1.63615
C         29.45693        26.56477         1.52620
C         30.81431        28.81175         1.64943
C         29.52627        29.55957         1.76327
C         30.76045        31.73292         1.67452
C         29.55063        31.04203         1.61334
C         30.77438        33.16474         1.55039
C         29.52018        33.88408         1.48293
C         30.74392        36.07034         1.46777
C         29.48132        35.30915         1.42314
C         30.69959        37.45874         0.94664
C         29.43346        38.16398         1.01059
C         30.52236        40.25063         0.27889
C         29.38770        39.55965         0.80345
C         30.47318        41.61397         0.02629
C         29.28583        42.36257         0.33684
C         30.49460        44.45715        -0.16045
C         29.27421        43.77290         0.14421
C         30.59366        45.92206         0.07082
C         29.37209        46.70420         0.47265
C         30.70826        48.85797         0.16868
C         29.37433        48.15479         0.24610
C         30.58205        50.22196        -0.43264
C         29.36160        50.85074        -0.60718
C         29.29710        52.16404        -1.17999
C         31.75208        16.66225        -0.48212
C         33.01689        18.83540        -0.60302
C         31.77384        18.08769        -0.54616
C         33.07819        20.22760        -0.60803
C         31.80197        20.98405        -0.65538
C         33.12181        23.04789         0.07117
C         31.80207        22.43796        -0.25310
C         33.13871        24.48209         0.47314
C         31.87927        25.22675         0.80759
C         33.26215        27.25072         1.26265
C         31.96018        26.54848         1.20318
C         33.27991        28.73761         1.56769
C         31.99474        29.49397         1.64692
C         33.28540        31.74429         1.47261
C         32.05306        30.99518         1.98620
C         33.25382        33.12426         1.32313
C         32.01383        33.84467         1.42664
C         33.25173        36.01853         0.89671
C         32.05607        35.31621         1.42148
C         33.20281        37.52778         0.82490
C         31.83177        38.07765         0.49912
C         32.96742        40.14782        -0.45680
C         31.72121        39.44434        -0.05093
C         32.93625        41.63820        -0.43277
C         31.59125        42.28622        -0.74337
C         32.86126        44.47378        -0.92190
C         31.64570        43.77442        -0.53385
C         32.81104        45.89030        -1.06039
C         31.72588        46.65330        -0.56178
C         31.73064        48.03878        -0.57500
C         34.29707        20.98206        -0.63639
C         35.54255        23.13305        -0.49029
C         34.34980        22.37657        -0.44775
C         35.58463        24.53658        -0.26313
C         34.27918        25.29709        -0.10095
C         35.57898        27.43717         0.13930
C         34.46330        26.59294         0.66484
C         35.61470        28.89671         0.44573
C         34.53713        29.50955         1.29522
C         35.87268        31.71070         1.17140
C         34.57004        31.00840         1.44294
C         35.84486        33.21605         1.13498
C         34.51660        33.92596         1.19747
C         35.63830        36.06744         0.31837
C         34.44803        35.35836         0.76820
C         35.56438        37.39827        -0.10026
C         34.33763        38.14356         0.03272
C         35.43692        40.18018        -0.86557
C         34.27528        39.46031        -0.36739
C         35.38213        41.54742        -1.11623
C         34.20030        42.36673        -0.80043
C         34.04608        43.77095        -1.19196
C         36.76824        25.27289        -0.33850
C         37.93747        27.45734        -0.54638
C         36.82111        26.71481        -0.25866
C         37.86306        28.95673        -0.74149
C         36.86032        29.65123         0.16587
C         38.12505        31.74557        -0.01236
C         36.96519        30.98900         0.44737
C         38.16164        33.13256         0.02196
C         37.06674        33.92715         0.61951
C         38.02557        35.99198        -0.57001
C         36.95446        35.39118         0.26028
C         37.89232        37.30009        -0.99247
C         36.70170        38.06243        -0.72570
C         36.62794        39.40488        -1.07594
C         39.19342        29.65005        -0.73676
C         40.48084        31.74394        -0.82104
C         39.27154        31.00155        -0.52226
C         40.47490        33.10281        -0.86357
C         39.28591        33.85671        -0.53216
C         39.20463        35.21757        -0.80768
O         27.76892        27.03805        -0.14759
O         16.03462        16.33569         1.02956
O         21.27718        42.09278         3.76694
O         10.80139        37.19004        -1.15788
O         20.61070        29.36072        -1.08527
O         22.31473        27.06088         2.37435
O         22.31465        12.97958        -1.82120
O         29.55279        21.18745         1.39968
O         34.26245        28.97097         2.62924
O         30.06790        26.77929         2.81965
O         16.41349        27.34504         1.02249
O         15.42136        22.80101        -2.11631
O         10.13466        31.93758        -1.94482
O         31.54622        35.91878         2.69335
O         33.38495        23.44776         1.47101
O         22.82228        24.98528        -0.50231
O         20.89911         7.44765        -1.00621
O         19.87321        50.92363         1.25590
O         25.58635        53.17495        -3.72223
O         25.72063        23.54884         2.57549
O         28.62109        29.13025         2.85069
O         32.10571        39.54677        -1.50101
O         18.84408        32.75081        -1.38681
O          8.65604        32.23195         1.28727
O         16.68102        43.18399         3.36354
O         25.11395        19.51926        -0.92472
O         22.19238         5.42534        -1.49884
O         20.01570        51.78387        -2.27214
O         25.88116        15.35449         2.14816
O         20.55840        45.93030         3.21474
O         24.19709        44.63274         3.22960
O         30.99886        23.22551        -1.19282
O         22.99703        19.37620         2.23908
O         16.94272        25.13328        -1.78793
O         33.70230        42.18731         0.64845
O         24.47792        34.58136         3.16745
O         26.56042        48.99849         2.02279
O         21.98283        52.20163         0.72708
O         26.83114        34.64109        -0.01273
O         18.08148        18.36662        -1.42775
O         19.72784        13.77780         1.41159
O         28.42804        18.32220        -1.75444
O         37.51005        34.95256         1.55672
O         26.23379        42.78915        -0.16020
O         25.74627        42.35119         3.41679
O         13.44238        36.70194         1.65377
O         15.39960        29.50380        -1.92865
O         25.17765        31.15166         2.85318
O         26.31049        11.83392         1.89996
O         12.48094        42.55572         0.13919
O         35.04809        28.39244        -0.86276
O         19.78135        18.37374         1.95387
O         14.00633        31.34200         1.06863
O         31.02915        20.77412        -1.88634
O         35.37055        33.77829         2.38428
O         10.23499        29.37080        -2.22476
O         27.77858        45.43918        -0.90754
O         14.75912        35.98647        -1.63558
O         30.33382        46.25857         1.49622
O         16.82035        38.74337         2.73568
O         20.12506        47.99434        -0.79826
O         26.43716        29.11942        -0.24699
O         34.26354        26.51759         2.08495
O         27.21063        21.00504        -1.29515
O         35.55897        31.26724         2.52207
O         13.38183        24.75613        -2.70175
H         14.17490        24.22825        -2.96365
O         33.81840        25.65735        -1.43235
H         34.47877        26.25808        -1.83930
O         25.49519        54.18246        -4.73321
H         26.43810        54.41616        -4.91646
O         33.43820        37.97182         2.20763
H         32.87689        37.40083         2.78831
O         31.33305        42.06602        -2.16100
H         31.36757        41.08785        -2.30848
O         32.20236        31.02188         3.43537
H         33.04690        30.56398         3.65327
O         15.78759        18.85700        -2.43145
H         16.71367        19.07921        -2.68433
O         24.82826        47.35787         3.25101
H         24.80557        46.53488         3.78905
O         17.70194        24.79543         1.79485
H         18.31978        24.30371         2.37696
O         26.90084        31.53922        -0.37971
H         26.58955        30.76318        -0.90883
O         18.11295        45.29460         3.73594
H         17.83234        44.52514         4.28249
O         26.15560        39.96210         3.64250
H         25.96435        40.78740         4.15651
O         37.34791        29.13655        -2.11516
H         36.40526        28.83733        -2.09205
O         14.92272        38.57768        -1.07412
H         14.89229        37.65714        -1.50798
O         18.90840        20.95272         2.23338
H         19.10571        20.02986         2.53706
O         18.65213        27.47255        -1.87948
H         19.44077        28.02319        -2.09745
O         12.09522        26.77976         1.19151
H         11.27974        26.29091         1.43696
O         17.22429        34.67537        -1.72966
H         17.62016        33.94785        -2.26382
O         14.87254        14.28416        -1.90967
H         15.32698        14.77032        -2.62782
O         31.16995        48.99390         1.56234
H         31.12726        48.08983         1.95587
O         24.10352        13.54495         2.61746
H         24.52477        14.33263         3.03588
O         22.53449        11.84489        -2.66009
H         21.65278        11.68896        -3.07943
O         24.56902        39.64537         0.37308
H         23.75610        39.20481         0.04632
O         24.40177        38.08725         3.73110
H         25.16974        38.57508         4.11870
O         21.88382        18.24191        -1.05315
H         22.77929        18.00179        -1.37528
H          4.95605        31.37740        -0.01271
H          5.00851        33.77294         0.46119
H          7.45869        27.06504        -0.51668
H          6.16490        29.21260        -0.48292
H          6.24262        35.93868         0.55285
H          7.46980        38.01592         0.94774
H          9.92987        22.77907        -0.72717
H          8.70457        24.93555        -0.52616
H          8.71614        40.12976         1.43254
H          9.73579        42.05050         1.98904
H         12.27164        18.45244        -0.55721
H         11.13224        20.63649        -0.65928
H         11.21387        44.50140         2.55498
H         12.27783        46.67065         1.54690
H         15.01812        13.93460         0.10629
H         13.41830        16.27815        -0.61618
H         13.48984        48.68388         0.74298
H         14.70372        50.64983        -0.09681
H         17.65155        10.21366        -2.51088
H         16.19594        12.05185        -1.63415
H         15.92550        52.66523        -0.85706
H         17.18839        54.67012        -1.76399
H         20.55360         6.52756        -4.28312
H         19.17333         8.69044        -3.60384
H         18.41405        56.62446        -2.61275
H         19.63363        58.60195        -3.44184
H         23.99408         3.10870        -4.01625
H         22.11964         4.46104        -4.73158
H         23.00882        61.71251        -4.82522
H         20.86030        60.59030        -4.27002
H         25.58416         3.72494        -2.37973
H         26.76358         5.65727        -1.30604
H         26.44986        58.53680        -3.77427
H         25.17827        60.53483        -4.50478
H         27.90290         7.66345        -0.30819
H         29.02620         9.64193         0.12252
H         28.98423        54.66484        -2.09614
H         27.71540        56.61308        -2.91247
H         30.30375        11.81630        -0.25279
H         31.50701        13.95995        -0.32786
H         31.50413        50.74650        -0.72533
H         30.23638        52.66551        -1.45665
H         32.70528        16.11509        -0.53065
H         33.95596        18.26171        -0.59670
H         33.69568        46.41946        -1.44564
H         32.56868        48.56491        -1.05687
H         35.23820        20.43786        -0.81139
H         36.48626        22.61706        -0.72696
H         36.26826        42.05371        -1.52812
H         34.92044        44.31540        -1.57972
H         37.71050        24.74321        -0.54748
H         38.86091        26.94526        -0.85835
H         38.71204        37.78106        -1.54720
H         37.50935        39.89589        -1.51505
H         40.07022        29.10451        -1.11770
H         41.38250        31.18018        -1.10102
H         41.37386        33.65559        -1.17277
H         40.06213        35.71311        -1.28783
