         244
 CSIRO Nanostructure Databank - Neutral Graphene Oxide Data Set
C          1.70641         2.47920         1.81944
C          1.51574         3.72215         1.28200
C          2.72152         1.59720         1.36354
C          2.23288         4.15494         0.02824
C          1.19312         6.43776         0.17292
C          1.11979         7.77982        -0.07333
C          2.36565         5.66820        -0.07441
C          2.21559         8.45916        -0.84092
C          1.06395        10.76923        -0.24506
C          1.14813        12.10510         0.00208
C          2.22758         9.99814        -0.71296
C          2.40518        12.82863         0.03830
C          1.29932        15.01898         0.71297
C          1.35927        16.39734         0.88041
C          2.44810        14.27834         0.34117
C          2.55637        17.11217         0.65811
C          2.61966        18.54878         0.77605
C          3.71141         2.05935         0.47923
C          3.55129         3.39658        -0.14286
C          4.90961         1.35780         0.27497
C          4.83252         4.14611        -0.45928
C          3.58294         6.34258        -0.43165
C          3.56255         7.78607        -0.58495
C          4.79530         5.61621        -0.52565
C          4.76419         8.52789        -0.65353
C          3.55505        10.72847        -0.61229
C          3.57699        12.12443        -0.15578
C          4.79740         9.93121        -0.58979
C          4.89753        12.76982         0.20229
C          3.65943        14.98035         0.18723
C          3.72933        16.39119         0.30050
C          4.89473        14.24179        -0.25486
C          4.95801        17.10526         0.02192
C          3.76888        19.23326         0.51555
C          4.98032        18.55445         0.09958
C          6.11799         2.02359        -0.09908
C          6.11586         3.44467        -0.26743
C          7.34652         1.31758        -0.11453
C          7.34200         4.15402        -0.24350
C          6.07932         6.30535        -0.69649
C          6.06691         7.80375        -0.74363
C          7.34715         5.60967        -0.34257
C          7.28142         8.52378        -0.18379
C          6.04937        10.68835        -0.72531
C          6.11520        12.09634        -0.39346
C          7.39104         9.93315        -0.70487
C          7.34828        12.79919        -0.43033
C          6.19035        14.94737         0.15454
C          6.16317        16.41191        -0.20525
C          7.37459        14.19663        -0.36243
C          7.38230        17.08898        -0.42497
C          6.14258        19.25047        -0.16349
C          7.35038        18.56538        -0.73892
C          8.57762         2.00047        -0.18596
C          8.55411         3.42611        -0.16444
C          9.84056         1.31615        -0.20286
C          9.83333         4.13351        -0.05112
C          8.52415         6.32947        -0.24680
C          8.58426         7.77856        -0.29593
C          9.81154         5.62294        -0.06140
C          9.76760         8.48214        -0.16857
C          8.63132        10.66875        -0.41408
C          8.62878        12.07707        -0.41481
C          9.82223         9.93593        -0.18302
C          9.82378        12.76181        -0.10929
C          8.67183        14.90931        -0.61588
C          8.61616        16.40101        -0.38036
C          9.75805        14.23541         0.21502
C          9.83861        17.08586        -0.22839
C          8.65030        19.24779        -0.44437
C          9.83690        18.54364        -0.26407
C         11.07513         1.97931        -0.32237
C         11.09550         3.43524        -0.37813
C         12.31257         1.27862        -0.30488
C         12.25627         4.14586        -0.60869
C         11.02166         6.38122        -0.56748
C         11.03672         7.73044         0.15470
C         12.31490         5.60381        -0.51071
C         12.30448         8.50054        -0.06304
C         11.05160        10.63146        -0.04781
C         11.04631        12.06008         0.02017
C         12.31058         9.88698        -0.00899
C         12.26161        12.80223         0.26656
C         11.07836        14.95291         0.14563
C         11.06740        16.37052         0.00704
C         12.26977        14.21096         0.33170
C         12.29902        17.09532         0.07913
C         11.08365        19.22482        -0.19467
C         12.30683        18.52748        -0.08935
C         13.54404         1.94913        -0.45901
C         13.50843         3.38382        -0.82543
C         14.79363         1.32202        -0.33703
C         14.81244         4.13979        -0.88436
C         13.49258         6.30758        -0.50893
C         13.56602         7.70458         0.10430
C         14.77308         5.63665        -0.82269
C         14.81736         8.49732        -0.18630
C         13.55228        10.60061         0.06872
C         13.52393        12.03907         0.37030
C         14.79829         9.91896        -0.06028
C         14.82458        12.79061         0.28324
C         13.53910        14.95609         0.72235
C         13.52780        16.42000         0.32718
C         14.80871        14.26978         0.24898
C         14.73161        17.11483         0.28780
C         13.54132        19.21701        -0.11724
C         14.76562        18.53122         0.03547
C         16.03156         2.04137        -0.33278
C         16.05328         3.44972        -0.49933
C         17.26212         1.36861        -0.04518
C         17.25691         4.19092        -0.30229
C         16.05343         6.37742        -0.64050
C         16.03211         7.82119        -0.30698
C         17.29017         5.61927        -0.36931
C         17.26438         8.51772        -0.34709
C         16.04097        10.63548        -0.18800
C         16.06399        12.08289        -0.10990
C         17.24602         9.92842        -0.39847
C         17.22359        12.80692        -0.25056
C         15.96705        14.95950         0.13282
C         16.00541        16.38689         0.63443
C         17.19869        14.30362        -0.44554
C         17.26559        17.11135         0.26393
C         16.00379        19.21741        -0.00554
C         17.25533        18.55581         0.15639
C         18.45932         2.06024         0.06324
C         18.47611         3.49150        -0.07002
C         19.70500         1.39084         0.42513
C         19.68603         4.21783         0.10667
C         18.46970         6.32362        -0.11113
C         18.52325         7.78674        -0.26446
C         19.66712         5.60938         0.17359
C         19.72791         8.44118        -0.30559
C         18.49861        10.64416        -0.73354
C         18.49679        12.13868        -0.58275
C         19.83139         9.88335        -0.76271
C         19.76220        12.85391        -0.29666
C         18.49878        14.99470        -0.10315
C         18.46140        16.39034         0.10117
C         19.74626        14.27219        -0.15467
C         19.71791        17.17450         0.00653
C         18.45517        19.27437         0.20499
C         19.70040        18.56048         0.62440
C         20.88120         2.04655         0.47712
C         21.00410         3.48190         0.03476
C         22.11714         4.24627         0.71032
C         20.84607         6.41663         0.67018
C         21.03610         7.66966        -0.21899
C         22.07930         5.57352         0.88676
C         22.15048         8.54155         0.29121
C         20.95114        10.65735        -0.08821
C         20.95122        12.09555        -0.07279
C         22.07959         9.90751         0.34424
C         22.14557        12.81968         0.21075
C         20.99341        14.95826         0.02320
C         21.04668        16.43308        -0.02631
C         22.16389        14.20486         0.21722
C         22.23202        17.21252         0.31831
C         20.97320        19.30627         0.35485
C         22.17158        18.61413         0.32227
O         14.31649        12.34362         1.61251
O          6.24324         7.07562        -1.98074
O         15.47352         6.20381        -1.99750
O         18.39526        11.49967        -1.93752
O          6.79132        10.25345        -1.95033
O          2.83113        10.59070        -1.91612
O         20.38372        17.01729        -1.25255
O          9.95440         4.93900         1.21199
O          4.00969         3.47169        -1.51898
O         14.17505         3.63895        -2.11218
O         13.68833         7.38608         1.54842
H         12.77815         7.13943         1.85692
O          4.99943        12.65318         1.64538
H          5.56756        13.39973         1.96860
O          4.90500        14.24779        -1.70587
H          4.10377        13.77544        -2.01848
O          9.03217        14.71992        -2.01133
H          8.32835        15.11853        -2.56485
O         20.47466         6.94556         1.97573
H         20.29849         6.18727         2.57066
O         10.79401         6.67556        -1.97069
H         11.21097         5.97792        -2.51815
O          9.28457        14.34495         1.60950
H         10.02175        14.07376         2.19791
O         17.05383        14.46870        -1.90501
H         17.72091        13.89139        -2.33691
O          7.03780         8.67796         1.25373
H          7.28806         7.84207         1.70171
O          6.35364        14.91107         1.61990
H          7.32486        14.91921         1.80682
O          1.38524         3.76083        -1.09591
H          1.96915         3.74630        -1.88825
O         19.63721        18.32208         2.08538
H         19.35342        19.15721         2.51287
O          1.92218         8.18601        -2.25032
H          2.43496         8.85146        -2.76676
O         20.25375         9.77286        -2.16630
H         19.79796        10.50968        -2.64427
O         16.03157        16.27951         2.10110
H         15.17030        15.86613         2.37423
O         21.37472         7.21578        -1.55512
H         21.23202         7.98696        -2.15371
O         10.97439         7.44239         1.59679
H         10.86086         8.29722         2.06424
O         21.35932         3.43878        -1.38738
H         21.39843         4.36676        -1.70603
O          7.17298        18.65028        -2.22399
H          6.28132        18.29063        -2.42238
O         13.58668        14.92085         2.19351
H         13.78105        13.97515         2.42323
H          1.08060         2.15781         2.66526
H          0.74218         4.37519         1.70869
H          2.83686         0.61133         1.83531
H          0.30493         5.92872         0.57394
H          0.17599         8.30896         0.11853
H          0.09370        10.26628        -0.12648
H          0.22994        12.64023         0.28250
H          0.34022        14.50844         0.87473
H          0.45247        16.94868         1.16909
H          1.70919        19.08947         1.07422
H          4.98049         0.31682         0.62571
H          3.79275        20.32961         0.60194
H          7.33600         0.22161        -0.02553
H          6.15463        20.34740        -0.07287
H          9.83447         0.21705        -0.15183
H          8.68344        20.34599        -0.51293
H         12.30724         0.19112        -0.13652
H         11.09803        20.32216        -0.27591
H         14.82483         0.23919        -0.14122
H         13.54553        20.30803        -0.25828
H         17.24805         0.27802         0.10117
H         15.99850        20.30798        -0.15324
H         19.65330         0.32253         0.68654
H         18.46148        20.36209         0.04060
H         21.80190         1.51276         0.75837
H         23.04046         3.69207         0.94422
H         22.94989         6.07978         1.33358
H         23.08465         8.05185         0.60271
H         22.94969        10.44325         0.75178
H         23.09137        12.28620         0.36721
H         23.12287        14.71839         0.37088
H         23.19636        16.71275         0.48314
H         20.97113        20.40591         0.38747
H         23.11672        19.17842         0.34851
