         429
 CSIRO Nanostructure Databank - Neutral Graphene Oxide Data Set
C          1.44259         3.64182        -2.43221
C          0.26081         4.37208        -2.59051
C          1.33548         6.41147        -1.76609
C          0.19758         5.72550        -2.26968
C          1.30078         7.79770        -1.39150
C          0.17383         8.64896        -1.74513
C          1.04896        10.43877        -0.29304
C          0.08298         9.93102        -1.32921
C          1.06990        11.95346        -0.09883
C         -0.16880        12.74314        -0.17507
C          1.04127        14.88572         0.01339
C         -0.14702        14.11832        -0.05179
C          1.04894        16.31841         0.16935
C         -0.13815        17.07165        -0.01059
C          1.07239        19.14891         0.33107
C         -0.11429        18.45526         0.04003
C          1.05462        20.65332         0.23239
C         -0.09823        21.34328         0.92245
C          1.15554        23.45099         0.87208
C         -0.05859        22.68027         1.11699
C          1.16989        24.91034         0.94764
C          0.02942        25.67495         1.20544
C          1.21149        27.80596         0.85651
C          0.05647        27.08060         1.17963
C          1.21052        29.27844         0.83293
C          0.24245        30.02371         1.50352
C          0.79172        32.40092         0.92391
C          0.22796        31.44318         1.73972
C          1.00012        33.82590         1.22265
C          0.35205        34.51574         2.27714
C          1.66458        36.54424         1.86259
C          0.61165        35.86384         2.52019
C          1.91434        37.96483         2.01759
C          3.82430         3.53348        -1.80518
C          2.60888         4.26232        -1.93325
C          3.70334         6.31871        -1.11971
C          2.54707         5.66597        -1.59726
C          3.66290         7.67618        -0.75755
C          2.44713         8.40453        -0.81700
C          3.59091        10.54045        -0.32123
C          2.43055         9.83013        -0.49808
C          3.62932        12.02826        -0.60170
C          2.35513        12.71655        -0.14636
C          3.54095        14.80639         0.40672
C          2.34731        14.22793        -0.33464
C          3.50300        16.26673         0.77313
C          2.25680        17.02373         0.47327
C          3.49279        19.14239         1.09437
C          2.26349        18.42654         0.55967
C          3.54608        20.60552         0.71043
C          2.36367        21.31365         0.58397
C          3.64154        23.47190         0.81583
C          2.33973        22.74884         0.64851
C          3.55634        24.89154         0.34319
C          2.38960        25.61748         0.62070
C          3.63981        27.70743         0.27038
C          2.39982        27.05605         0.53433
C          3.68119        29.17562         0.36994
C          2.39718        29.92472         0.29365
C          3.66225        31.97226        -0.30804
C          2.42716        31.23530        -0.11685
C          3.65599        33.35150        -0.39658
C          1.97266        34.57459         0.50718
C          3.75138        36.42801         0.50577
C          2.44282        35.82962         0.91902
C          3.87349        37.91373         0.52105
C          2.88342        38.61876         1.30820
C          6.24998         3.47184        -1.30335
C          5.00729         4.12296        -1.31423
C          6.20362         6.25413        -0.58410
C          4.92222         5.52307        -0.84636
C          6.20093         7.73769        -0.86582
C          4.91280         8.35605        -0.34383
C          6.13468        10.62837        -0.24427
C          4.88150         9.85135        -0.15786
C          6.11083        12.00524        -0.15750
C          4.87484        12.75002        -0.11119
C          6.02882        14.85932         0.50498
C          4.84426        14.11311         0.20960
C          6.00204        16.22239         0.85790
C          4.79350        16.98928         0.89410
C          6.01294        19.13769         0.85529
C          4.80143        18.40012         0.89773
C          6.04376        20.54553         0.62623
C          4.82173        21.28364         0.60416
C          6.07105        23.33556         0.13560
C          4.85462        22.68062         0.40653
C          6.07090        24.74438        -0.28485
C          4.73601        25.55780        -0.17778
C          6.07629        27.65940        -0.34136
C          4.81676        27.01322        -0.06376
C          6.13915        29.07283        -0.43128
C          4.95753        29.85165        -0.03101
C          6.09302        31.93235        -0.69948
C          4.92401        31.27895        -0.36327
C          6.14688        33.38168        -0.46570
C          4.86037        34.12791        -0.15589
C          5.97670        36.33034        -0.87608
C          4.89866        35.63815        -0.04826
C          6.16025        37.78594        -0.48648
C          5.04772        38.50509         0.11510
C          8.72926         3.48917        -1.05010
C          7.48359         4.14338        -1.00054
C          8.65892         6.26483        -0.47470
C          7.48172         5.54488        -0.71775
C          8.59664         7.70430        -0.20051
C          7.44837         8.42296        -0.37164
C          8.61118        10.61087         0.20114
C          7.45621         9.93117        -0.49271
C          8.61440        11.96700         0.32123
C          7.39202        12.73926        -0.02759
C          8.52113        14.76048         1.09308
C          7.34354        14.19114         0.32514
C          8.55965        16.25526         0.97154
C          7.27437        16.91768         1.16460
C          8.56509        19.14029         0.89218
C          7.27930        18.46064         1.14402
C          8.54334        20.53864         0.58835
C          7.29802        21.23501         0.49177
C          8.54395        23.34804         0.05019
C          7.30442        22.63722         0.21699
C          8.54280        24.76778        -0.18061
C          7.32562        25.48883        -0.30045
C          8.50329        27.61029        -0.75807
C          7.29316        26.90949        -0.48683
C          8.51657        29.00036        -0.96350
C          7.32275        29.75163        -0.79427
C          8.49660        31.92439        -1.12798
C          7.33723        31.21234        -0.90623
C          8.50277        33.40984        -1.41868
C          7.30368        34.17245        -0.89307
C          8.52219        36.24702        -1.23038
C          7.28567        35.53667        -0.91097
C          8.42770        37.71821        -1.58205
C          7.32586        38.41108        -0.80834
C         11.18886         3.52094        -0.87079
C          9.93905         4.18887        -0.80475
C         11.13773         6.29371        -0.22774
C          9.91028         5.59383        -0.50568
C         11.13241         7.67992         0.12903
C          9.83532         8.35306         0.30869
C         11.10763        10.57232         0.62478
C          9.82509         9.84179         0.55219
C         11.10105        11.96267         0.66713
C          9.84247        12.69609         0.62563
C         11.08887        14.84938         0.60103
C          9.82033        14.06020         0.79846
C         11.00122        16.27538         1.09939
C          9.77551        16.96890         1.05969
C         11.02327        19.13817         0.83544
C          9.77076        18.43338         0.98326
C         11.01175        20.54402         0.56906
C          9.77646        21.24227         0.42117
C         11.02576        23.35612         0.05135
C          9.77508        22.64899         0.14972
C         11.01498        24.77317        -0.27572
C          9.78834        25.44085        -0.39841
C         11.08143        27.59353        -0.95036
C          9.75298        26.83056        -0.88577
C         11.06781        29.06843        -1.00083
C          9.77587        29.71005        -1.30333
C         11.05348        31.95347        -1.22749
C          9.77057        31.22114        -1.37458
C         11.04101        33.36671        -1.27420
C          9.76707        34.09985        -0.90383
C         10.94518        36.27926        -1.67563
C          9.70901        35.57839        -1.26404
C         10.96522        37.76573        -1.55159
C          9.75862        38.42472        -1.46568
C         13.65660         3.53566        -0.78937
C         12.39543         4.19165        -0.59337
C         13.56956         6.25014         0.22018
C         12.35095         5.57238        -0.22341
C         13.58617         7.71543         0.33664
C         12.33778         8.40139         0.35962
C         13.55607        10.48486         0.89400
C         12.34011         9.81724         0.64660
C         13.47835        11.86798         1.52405
C         12.31761        12.69869         0.98928
C         13.46415        14.83044         1.69967
C         12.31470        14.06258         1.05466
C         13.48987        16.24566         1.08870
C         12.23557        17.03668         1.50941
C         13.48749        19.15060         0.98392
C         12.25275        18.45708         0.98790
C         13.46198        20.55294         0.78995
C         12.24972        21.26502         0.54474
C         13.48551        23.50785         0.49040
C         12.22968        22.68015         0.30405
C         13.54723        24.74214        -0.41074
C         12.25639        25.52003        -0.35004
C         13.49825        27.70429        -0.15125
C         12.28741        26.88072        -0.53095
C         13.52495        29.05734        -0.83690
C         12.24013        29.79531        -0.96200
C         13.50698        31.96196        -0.98584
C         12.26779        31.23343        -1.12530
C         13.47054        33.38769        -1.14413
C         12.26186        34.07032        -1.36104
C         13.51061        36.30185        -1.74642
C         12.23117        35.51933        -1.71854
C         13.47334        37.77007        -1.53935
C         12.22998        38.43487        -1.48415
C         16.11288         3.62831        -1.03565
C         14.87325         4.19188        -0.63086
C         16.11196         6.34685        -0.09237
C         14.90217         5.52436         0.00457
C         16.07333         7.72688         0.24845
C         14.81259         8.40689         0.46272
C         16.04687        10.53585         0.81704
C         14.79952         9.81506         0.74273
C         16.05496        11.93760         1.06488
C         14.81593        12.61292         1.50289
C         16.02885        14.86269         1.18102
C         14.81447        14.11724         1.58391
C         15.98864        16.27373         1.10210
C         14.77909        17.01482         1.24951
C         16.01274        19.12013         1.08396
C         14.76074        18.41952         1.13503
C         16.01990        20.59268         1.05224
C         14.72276        21.31013         0.89951
C         16.04118        23.41388         0.18475
C         14.74446        22.68936         0.32086
C         16.03733        24.88894         0.05426
C         14.81292        25.56285        -0.16012
C         16.04234        27.69037        -0.20262
C         14.81178        26.96187        -0.23860
C         16.05280        29.12820        -0.31833
C         14.80382        29.83530        -0.70785
C         15.92212        32.03636        -0.26518
C         14.72032        31.29818        -0.67170
C         15.95917        33.51870        -0.45816
C         14.68412        34.18823        -0.89845
C         15.99351        36.33555        -1.08463
C         14.78494        35.57420        -1.43600
C         15.94805        37.75674        -1.15926
C         14.69534        38.43647        -1.34334
C         18.56285         3.73930        -1.29219
C         17.31089         4.34273        -0.92998
C         18.53858         6.44435        -0.41952
C         17.31185         5.71995        -0.49099
C         18.53519         7.80611         0.00751
C         17.29310         8.46256         0.28889
C         18.51746        10.57529         0.70655
C         17.28129         9.86055         0.59260
C         18.50796        11.97956         0.96974
C         17.25590        12.67619         1.07575
C         18.50137        14.80624         1.11990
C         17.25434        14.12743         1.11357
C         18.55989        16.25052         0.87642
C         17.22019        17.01350         0.80106
C         18.51636        19.16036         0.96928
C         17.24146        18.46495         0.99029
C         18.54942        20.56897         0.84706
C         17.26312        21.25677         0.47791
C         18.54728        23.45293         0.37902
C         17.27383        22.76297         0.78916
C         18.51391        24.84805         0.24690
C         17.27328        25.57658         0.11919
C         18.52564        27.72167        -0.09013
C         17.27791        26.99931        -0.04543
C         18.51177        29.13982        -0.23976
C         17.25440        29.82553        -0.29738
C         18.49408        32.05649        -0.43728
C         17.25262        31.30474        -0.18009
C         18.46929        33.48057        -0.62357
C         17.23798        34.20263        -0.68203
C         18.42022        36.36696        -0.84661
C         17.21448        35.63295        -0.86193
C         18.38495        37.79371        -0.79871
C         17.14931        38.47150        -0.94009
C         19.73961         4.43194        -1.19642
C         20.97287         6.51183        -0.62108
C         19.76325         5.79489        -0.74893
C         20.97429         7.82724        -0.18334
C         19.77179         8.50472         0.13325
C         20.95947        10.60291         0.78141
C         19.76165         9.89197         0.54756
C         20.94705        11.95158         1.09705
C         19.73695        12.67532         1.15845
C         20.89717        14.87106         1.57147
C         19.72530        14.11740         1.31174
C         20.90172        16.26486         1.58633
C         19.77059        17.01048         1.20803
C         20.96102        19.19912         1.10147
C         19.75301        18.44203         1.09856
C         20.97346        20.56323         0.90363
C         19.76158        21.29479         0.72497
C         20.96391        23.42471         0.04504
C         19.75980        22.71258         0.41729
C         20.98140        24.78015        -0.03940
C         19.80795        25.59173         0.45624
C         20.94975        27.78245        -0.03510
C         19.77054        27.04395         0.03349
C         20.93492        29.16930        -0.23632
C         19.73198        29.87766        -0.32619
C         20.90200        32.06015        -0.72497
C         19.71272        31.33920        -0.50846
C         20.89169        33.45240        -0.85363
C         19.70489        34.17915        -0.79443
C         20.85076        36.41271        -0.33964
C         19.74115        35.67295        -1.03923
C         20.77066        37.77814        -0.19467
C         19.59546        38.49371        -0.51690
O          9.64434         8.89782         1.67232
O          1.22813        31.94841        -0.34644
O         10.45813        27.01342        -2.15500
O         15.06760        13.30171         2.78528
O          5.22476        25.00126        -1.45352
O         15.41372        22.75288        -0.96462
O          3.28915        15.20239         1.78046
O          7.62353        13.78312        -1.05026
O         16.50609        31.68557         1.03924
O          1.86060        12.28492         1.13954
O          4.60729        29.64878         1.41180
O          4.92980         8.89891         0.99393
O         17.93485        16.60278        -0.40741
O         14.34598        29.20921        -2.01720
O          7.23905        17.71252         2.40355
O          5.70155        33.60754         0.92419
O         11.45746        35.75982        -2.95837
O          2.48658        34.04137        -0.69207
O         15.07861        34.20194         0.52104
O         14.38069        35.80651        -2.82446
O          5.40487         5.77285         0.53233
O          9.74185        30.40004        -2.60724
O          4.88803        35.96428         1.36817
O         15.37308        21.20339         2.23161
O         14.26718         5.56414         1.32181
O          3.68394        12.10244        -2.06274
H          3.58786        13.05762        -2.30333
O         13.15254        14.88029         3.11006
H         13.53795        14.05607         3.50323
O         17.17243        21.04216        -0.95568
H         17.91350        21.51720        -1.38607
O          8.00202        37.75988        -2.99613
H          8.70586        37.32196        -3.52299
O          3.83386        23.60949         2.28892
H          2.97073        23.87709         2.67343
O         13.43032        16.01387        -0.34310
H         13.28006        16.87113        -0.79429
O         17.25714        22.98524         2.22224
H         16.50584        22.46778         2.60833
O         19.97100        25.66138         1.92757
H         19.73628        24.77815         2.28747
O          0.59435         9.88931         0.98021
H          1.12285        10.33580         1.67945
O         20.04373        35.80582        -2.48977
H         20.03823        36.76555        -2.69562
O         13.58817        24.27375        -1.78029
H         13.56893        25.05242        -2.37457
O         13.13959        11.63385         2.92157
H         13.88119        11.14360         3.33471
O          9.70172        34.00504         0.54911
H         10.48955        34.44562         0.92987
O          6.17030         7.86737        -2.31915
H          6.64416         8.70317        -2.55433
O          7.70956        10.14486        -1.95051
H          7.61047        11.10676        -2.13014
O         11.15841        14.98372        -0.87524
H         11.23382        14.07978        -1.24857
O          2.59590        14.52714        -1.75493
H          1.73331        14.53539        -2.22166
O          8.20255        14.48496         2.49741
H          8.77952        15.04169         3.06221
O          0.86952        20.92181        -1.20632
H          0.84057        21.89631        -1.31824
O          5.51047        36.32519        -2.25380
H          6.19844        36.79500        -2.78705
O         13.31115        28.03543         1.26630
H         13.37918        27.20419         1.78361
O         12.18495        17.25352         2.94806
H         12.35045        16.38998         3.39862
O          3.30382        19.16914         2.55429
H          3.43146        18.25510         2.88870
O         13.47053        24.00288         1.85898
H         13.42466        23.23317         2.46549
O          8.44944        33.53182        -2.86549
H          9.04392        32.85507        -3.25528
H          1.46799         2.57419        -2.69370
H         -0.63771         3.86667        -2.97189
H         -0.75614         6.25655        -2.39186
H         -0.58313         8.25402        -2.43845
H         -0.75372        10.56603        -1.65613
H         -1.13265        12.21824        -0.22713
H         -1.11420        14.63594         0.02807
H         -1.08144        16.56352        -0.25083
H         -1.03495        19.02015        -0.16159
H         -1.01181        20.77659         1.15442
H         -0.93641        23.19555         1.53272
H         -0.92559        25.18138         1.43263
H         -0.87792        27.61527         1.39965
H         -0.51352        29.46101         2.07442
H         -0.28061        31.77434         2.65868
H         -0.41741        34.00010         2.86963
H          0.01694        36.40031         3.27318
H          1.24401        38.53656         2.67642
H          3.84489         2.48364        -2.13596
H          2.98774        39.70970         1.41018
H          6.29789         2.41680        -1.61406
H          5.18467        39.58491         0.28681
H          8.77200         2.41358        -1.27724
H          7.45000        39.48300        -0.58484
H         11.21413         2.45634        -1.14637
H          9.75052        39.52273        -1.38032
H         13.65015         2.50934        -1.18639
H         12.22755        39.52641        -1.34269
H         16.12727         2.60499        -1.43981
H         14.68848        39.53324        -1.25255
H         18.56075         2.69486        -1.63660
H         17.13138        39.57097        -0.91172
H         20.69098         3.94873        -1.46262
H         21.92227         6.01601        -0.86950
H         21.93642         8.35003        -0.10079
H         21.92801        10.09091         0.71034
H         21.90420        12.46485         1.25907
H         21.83546        14.34921         1.80273
H         21.83310        16.78160         1.85648
H         21.92066        18.67530         1.21142
H         21.93731        21.08965         0.87324
H         21.86747        22.85221        -0.21194
H         21.90889        25.29133        -0.33552
H         21.91972        27.28261         0.09273
H         21.89770        29.69505        -0.28161
H         21.86560        31.53827        -0.78768
H         21.84269        33.97554        -1.02499
H         21.78326        35.88698        -0.08966
H         21.63653        38.33378         0.19523
H         19.57806        39.58884        -0.42936
