         477
 CSIRO Nanostructure Databank - Neutral Graphene Oxide Data Set
C         28.09451        27.50088         1.34027
C         27.95575        28.89724         0.80560
C         26.87702        29.70764         1.48095
C         28.02423        31.78333         0.84976
C         26.90764        31.05616         1.44561
C         27.96403        33.13595         0.55154
C         26.79410        33.93560         0.80237
C         27.93842        36.02641         0.18330
C         26.76868        35.28756         0.60326
C         27.93194        37.45316         0.04366
C         26.75887        38.24957         0.35028
C         27.87866        40.37278        -0.19243
C         26.75202        39.61316         0.29022
C         27.91535        41.75868        -0.19648
C         26.89065        42.56706         0.44364
C         27.84629        44.68233        -0.49037
C         26.86388        43.91425         0.35889
C         27.99914        46.10618        -0.05262
C         30.51158        27.44188         0.98629
C         29.28558        26.80640         1.26038
C         30.51540        28.91180         1.00036
C         29.26167        29.65238         0.81608
C         30.49600        31.74409         0.39681
C         29.27174        31.03436         0.68837
C         30.42698        33.12140        -0.04975
C         29.07522        33.78047        -0.25437
C         30.28714        35.98432        -0.46069
C         29.11599        35.29711        -0.11384
C         30.29966        37.40328        -0.57368
C         29.09904        38.12519        -0.37566
C         30.32909        40.32030        -0.59640
C         29.01584        39.57878        -0.81280
C         30.36756        41.76676        -0.97926
C         29.07672        42.50666        -0.76598
C         30.39284        44.63114        -0.63504
C         29.16661        43.96254        -0.58644
C         30.42842        46.05310        -0.41613
C         29.20028        46.73231        -0.07862
C         32.93466        24.60075         0.90730
C         31.78374        25.25669         0.70424
C         33.04200        27.43220         0.64656
C         31.72405        26.73473         0.41749
C         33.15736        28.93953         0.79446
C         31.81752        29.66948         0.85788
C         32.91972        31.70184        -0.07426
C         31.73389        31.06022         0.35651
C         32.92847        33.20855        -0.09043
C         31.56727        33.79062        -0.40724
C         32.77010        35.95484        -1.09677
C         31.48986        35.20565        -0.82656
C         32.75544        37.40917        -0.85554
C         31.57248        38.09201        -0.73815
C         32.81664        40.30631        -1.10145
C         31.60757        39.57359        -0.59426
C         32.87098        41.79060        -1.05530
C         31.65846        42.50476        -0.93579
C         32.89930        44.61454        -0.84609
C         31.65418        43.91496        -0.82452
C         32.90995        46.05334        -0.62810
C         31.67307        46.75187        -0.43233
C         32.90724        48.84229        -0.12506
C         31.71680        48.16240        -0.23698
C         35.60780        23.10207         0.90289
C         35.57058        24.56842         0.91195
C         34.23940        25.30320         0.92184
C         35.44190        27.36522         0.06710
C         34.22921        26.73055         0.49903
C         35.41633        28.76104        -0.29756
C         34.06689        29.47200        -0.31216
C         35.32092        31.66915        -0.53740
C         34.12639        30.98635        -0.27950
C         35.29659        33.08204        -0.81522
C         34.10265        33.78054        -0.83220
C         35.23233        35.92928        -0.42141
C         34.11982        35.25401        -1.22224
C         35.30073        37.41971        -0.34857
C         34.03075        38.13988        -0.61134
C         35.41019        40.23271        -1.21311
C         34.08886        39.53004        -1.13597
C         35.39585        41.73059        -1.37041
C         34.10877        42.47881        -1.15591
C         35.40354        44.61963        -1.12298
C         34.11070        43.88920        -1.04446
C         35.41235        46.12062        -0.79771
C         34.12399        46.77570        -0.51731
C         35.40283        48.83216         0.07838
C         34.14657        48.15829        -0.21923
C         35.43369        50.21822         0.34435
C         38.00922        23.06770         0.40148
C         36.76408        22.41961         0.61918
C         38.08774        24.57300         0.56725
C         36.75923        25.28747         0.39901
C         37.81839        27.22431        -0.71774
C         36.66647        26.60783        -0.00515
C         37.78934        28.69882        -1.02677
C         36.55449        29.44760        -0.68085
C         37.78234        31.65815        -1.05090
C         36.63266        30.93407        -0.37824
C         37.85681        33.11064        -0.75288
C         36.58348        33.85757        -1.06687
C         37.76611        35.94479        -0.03344
C         36.50459        35.18856        -0.34141
C         37.80808        37.41764        -0.25850
C         36.61896        38.10649        -0.51820
C         37.83800        40.21861        -0.58910
C         36.64409        39.51341        -0.76200
C         37.75897        41.71345        -0.36590
C         36.75390        42.44398        -1.27419
C         37.83317        44.56852        -0.61431
C         36.65117        43.89608        -0.87235
C         37.85739        46.01249        -0.52801
C         36.66630        46.74429        -0.34453
C         37.70940        48.69582         0.90489
C         36.61187        48.08091         0.21829
C         37.70390        50.07143         1.18050
C         36.57602        50.83877         0.82660
C         40.47130        20.22724         0.27537
C         39.27768        20.91214         0.35490
C         40.46695        23.04299         0.09781
C         39.22981        22.33717         0.27552
C         40.42856        24.46009        -0.23376
C         39.26011        25.17058        -0.17586
C         40.38057        27.33341        -0.93955
C         39.14319        26.51338        -0.80277
C         40.37211        28.70716        -0.97798
C         39.09954        29.43054        -1.28551
C         40.22896        31.84374        -1.62131
C         39.02494        30.94458        -1.42980
C         40.32024        33.09158        -0.76080
C         39.04023        33.76610        -0.54032
C         40.33318        35.93562        -0.00477
C         39.04396        35.17711        -0.05064
C         40.32141        37.39828        -0.27424
C         39.07092        38.09806        -0.31816
C         40.32522        40.23146        -0.49826
C         39.07583        39.52332        -0.43006
C         40.30844        41.69871        -0.47055
C         39.09393        42.41536        -0.43567
C         40.29695        44.52998        -0.21407
C         39.08286        43.82900        -0.44042
C         40.30886        45.96939        -0.19433
C         39.15579        46.64628        -0.57149
C         40.21703        48.60811         1.36742
C         38.87398        47.92698         1.48040
C         40.18482        50.01304         1.64797
C         38.85819        50.66639         1.99466
C         40.02323        52.87644         1.60974
C         38.90587        52.17145         1.90262
C         42.92711        20.19020        -0.10818
C         41.70354        20.91881         0.13666
C         42.97363        23.05594         0.00348
C         41.68901        22.33360         0.07997
C         42.95971        24.46841        -0.41933
C         41.67362        25.09915        -0.73820
C         42.94456        27.32700        -0.86145
C         41.67040        26.60042        -1.01015
C         42.95938        28.84271        -1.06840
C         41.61515        29.45666        -0.71943
C         42.73085        31.49697         0.37279
C         41.56191        30.60274         0.02702
C         42.81642        32.91996        -0.38903
C         41.50895        33.68198        -0.39924
C         42.85406        35.86854        -0.36177
C         41.58758        35.14247        -0.09096
C         42.80688        37.30056        -0.85622
C         41.52535        38.07838        -0.50723
C         42.80507        40.15078        -1.14127
C         41.52262        39.49980        -0.62662
C         42.72414        41.76395        -1.13825
C         41.53645        42.41654        -0.45477
C         42.73661        44.54706         0.17513
C         41.52861        43.81435        -0.21661
C         42.73711        45.87399         0.50419
C         41.57237        46.75680         0.05451
C         42.65280        48.63987         1.33542
C         41.40556        47.98354         0.95905
C         42.64363        50.15056         1.63652
C         41.34163        50.80435         1.54582
C         42.50529        52.92973         1.23131
C         41.29937        52.22199         1.44139
C         44.11097        20.80851        -0.36378
C         45.40867        23.01390        -0.88530
C         44.26130        22.26278        -0.20089
C         45.41745        24.46794        -0.45866
C         44.14117        25.17698        -0.52491
C         45.40880        27.33069        -0.51245
C         44.11172        26.62472        -0.67794
C         45.41019        28.82316        -0.32673
C         44.11583        29.50949        -0.33365
C         45.25914        31.56084         0.35241
C         44.06164        30.81886         0.11906
C         45.31973        33.03621         0.02489
C         43.97507        33.74706         0.26848
C         45.28131        35.89748         0.03525
C         44.03797        35.20036        -0.15951
C         45.29476        37.32956        -0.12568
C         44.07768        38.06990        -0.50380
C         45.32577        40.20330        -0.47290
C         44.05603        39.44163        -0.59271
C         45.22014        41.59670         0.06570
C         44.21218        42.55680        -0.49036
C         45.17226        44.33919         1.08355
C         43.91162        43.68372         0.46569
C         45.16698        45.78879         1.41403
C         43.81302        46.50923         1.39909
C         45.14622        48.72411         1.74118
C         43.99342        48.00304         1.00163
C         45.12406        50.20738         1.35514
C         43.89588        50.89901         1.39364
C         43.74267        52.29582         1.16169
C         47.89232        23.06316        -0.46808
C         46.76291        22.37145        -0.73675
C         47.87928        24.47517        -0.11655
C         46.58041        25.12036        -0.12987
C         47.66165        27.27265         0.78730
C         46.48889        26.56621         0.19397
C         47.72413        28.75757         0.68913
C         46.56513        29.47340         0.32482
C         47.67105        31.59120         0.90132
C         46.49777        30.87914         0.52841
C         47.57135        33.05184         1.32883
C         46.43837        33.80260         0.67730
C         47.64893        35.92265         0.96689
C         46.43224        35.17621         0.55204
C         47.68722        37.38571         0.69255
C         46.48644        38.01786         0.10604
C         47.79088        40.13811         0.42366
C         46.58317        39.45372        -0.11093
C         47.76075        41.56420         0.67948
C         46.44750        42.25829         0.68106
C         47.61853        44.46976         0.52653
C         46.44652        43.70988         0.80826
C         47.65283        45.85692         0.69352
C         46.47880        46.53350         1.31484
C         47.70049        48.78331         1.02370
C         46.48611        48.03271         1.45146
C         47.51635        50.21203         0.70504
C         46.32500        50.84841         0.90358
C         50.34729        24.63793         0.11846
C         49.02777        25.17644         0.25876
C         50.19119        27.27670         1.16101
C         48.91780        26.44386         1.09505
C         50.02353        28.66637         1.73776
C         48.88764        29.45301         1.06588
C         50.15156        31.63082         1.02520
C         48.86070        30.87305         1.07557
C         50.08301        33.07460         1.44462
C         48.89248        33.79736         1.25965
C         50.18161        35.89202         1.20017
C         48.93873        35.19664         1.12383
C         50.31275        37.28324         0.62046
C         49.01922        38.01627         0.38117
C         50.22506        40.24400         0.11929
C         49.01435        39.50033         0.33522
C         50.19534        41.62241        -0.04324
C         49.00672        42.37665         0.35618
C         49.87576        44.54590        -0.81926
C         48.65381        43.71600        -0.29562
C         49.99328        45.94706        -0.20323
C         48.84319        46.61239         0.32700
C         50.07872        48.71975         0.31484
C         48.88286        48.02464         0.51930
C         51.46096        25.30724         0.55310
C         52.65686        27.23073         1.77583
C         51.40648        26.64327         1.10783
C         52.68181        28.76111         1.75401
C         51.33639        29.45788         1.83563
C         52.62117        31.67218         1.43534
C         51.33925        30.92426         1.60855
C         52.54552        32.99227         1.76031
C         51.28146        33.74374         1.75415
C         53.21692        36.24436         0.89012
C         51.29023        35.15829         1.65938
C         52.90358        37.45009         0.28592
C         51.60426        38.17803         0.66185
C         52.69203        40.28274        -0.34494
C         51.43579        39.43009        -0.28229
C         52.57462        41.70662        -0.76269
C         51.32285        42.39853        -0.53960
C         52.37557        44.48408        -1.25327
C         51.19339        43.76013        -0.79397
C         52.40654        46.05413        -0.99584
C         51.18704        46.67719        -0.39860
C         51.22536        48.04986        -0.09814
C         55.03624        27.31182         0.88231
C         53.95184        26.61748         1.28893
C         55.06665        28.75579         0.78371
C         53.89093        29.52197         1.27174
C         55.07943        31.66303         0.48067
C         53.73747        30.94642         0.71934
C         55.15718        33.11117         0.17014
C         54.39553        34.06597         0.84523
C         55.15800        35.90903        -0.58552
C         54.28650        35.41898         0.42596
C         55.08083        37.31873        -0.88960
C         53.94268        38.04520        -0.50309
C         55.01606        40.16621        -1.46913
C         53.93894        39.52301        -0.65172
C         54.93096        41.66617        -1.65649
C         53.70725        42.38393        -1.19508
C         54.85249        44.54385        -1.49924
C         53.66835        43.80623        -1.33272
C         54.86309        45.93791        -1.18886
C         53.73184        46.61418        -0.79792
C         56.16546        29.44378         0.34746
C         56.18026        30.88050         0.26107
C         56.00624        33.62404        -0.85783
C         56.05051        34.97284        -1.17928
C         56.22410        38.02088        -1.45649
C         56.24634        39.36096        -1.64888
C         56.13603        42.48816        -1.88601
C         56.09234        43.83646        -1.76580
O         53.64508        29.32379         2.70188
O         52.17345        45.47478        -2.29695
O         33.28955        39.69189        -2.34480
O         53.69928        33.72954         2.00091
O         45.42189        41.56582         1.49036
O         47.82998        43.36006        -1.40354
O         47.46557        36.90136         2.06273
O         44.18708        43.55751         1.85580
O         41.07521        35.56080         1.23915
O         34.99427        25.12178         2.16443
O         38.02053        31.34024        -2.45123
O         35.48429        45.62437        -2.18607
O         51.21612        30.40013         2.96794
O         38.32054        28.87424        -2.38162
O         31.91421        35.51331        -2.21093
O         35.47136        40.85614        -2.54642
O         31.03064        40.07596         0.66223
O         41.63304        25.61702        -2.10883
O         40.94623        31.70878        -2.60325
O         46.51954        26.86642         1.62852
O         29.51772        42.07591        -2.13038
O         45.99579        45.98246         2.59847
O         49.68143        37.28477        -0.71337
O         43.90513        22.76535         1.11069
O         38.71189        46.91621         2.14641
O         42.65315        42.20957        -2.40300
O         38.32696        35.41796         1.21269
O         47.46501        48.46105         2.46271
O         35.57612        35.20955         0.79922
O         42.64223        49.15766         2.69353
O         38.18627        26.45786        -1.92128
O         46.30012        39.91936        -1.50603
O         53.70347        40.12209         0.70690
O         34.51988        37.99769         0.76696
O         54.56624        40.72921        -2.75122
O         45.80554        28.16153        -1.64167
O         52.46524        35.81888         1.99153
O         31.25132        29.49155         2.19172
O         48.61986        42.11528         1.73291
O         42.55140        31.67836         1.78924
H         43.26892        32.26695         2.13882
O         31.52806        26.86508        -1.04825
H         32.06600        27.63234        -1.36688
O         33.17144        33.64351         1.31992
H         34.06638        34.06296         1.37150
O         33.84808        29.21562         2.03487
H         33.17210        29.18242         2.75018
O         52.52973        26.84897         3.17285
H         53.10449        27.46236         3.68274
O         37.33325        42.50777        -2.59490
H         36.86254        41.84845        -3.15902
O         38.42286        24.77021         1.99918
H         37.65608        24.45425         2.52521
O         42.84591        39.80011        -2.54882
H         42.77143        40.68224        -3.03019
O         34.49294        35.39646        -2.60743
H         33.68055        35.24583        -3.14211
O         36.96253        30.99947         1.04834
H         36.20210        30.64075         1.55685
O         28.78854        39.50482        -2.24610
H         28.83103        40.42931        -2.59714
O         50.47803        31.69838        -0.41816
H         49.73233        32.13710        -0.88290
O         47.22945        32.98002         2.75591
H         47.13845        33.89813         3.09070
O         42.77233        37.15017        -2.30544
H         42.83412        38.06735        -2.68971
O         40.41775        30.90789         0.72413
H         40.68742        31.50870         1.46079
O         41.97087        47.32643        -1.25864
H         41.90959        46.60431        -1.92107
O         36.74437        34.14980        -2.47755
H         36.90829        33.30396        -2.95004
O         44.77974        43.15430        -1.64702
H         44.14768        42.97427        -2.40367
O         45.71711        33.08232        -1.37395
H         44.94834        32.78156        -1.92030
O         38.56447        50.34610         3.38856
H         38.69125        49.38076         3.51285
O         45.06877        22.96393        -2.30634
H         45.74691        23.47047        -2.80043
O         43.82236        33.84093         1.71071
H         43.07854        34.45388         1.90630
O         48.77573        25.92448         2.44582
H         48.87678        26.68893         3.06199
O         43.26660        46.45361         2.72393
H         43.83282        47.02438         3.29914
O         49.62157        44.82716        -2.20990
H         48.79473        44.30206        -2.42457
O         37.24234        41.86988         0.98997
H         37.90857        41.51958         1.61830
O         44.35277        48.11176        -0.38330
H         43.56498        47.86973        -0.94170
O         33.41310        29.08769        -1.56127
H         34.01412        29.30256        -2.30669
O         27.53947        28.74678        -0.60333
H         27.42923        29.64962        -0.97143
O         44.96343        48.60172         3.16500
H         45.85861        48.66132         3.57215
O         49.54558        28.47320         3.10135
H         49.85988        29.25216         3.62126
O         51.70660        38.65152         2.01065
H         52.51652        39.21217         2.06036
O         43.23690        29.06133        -2.47707
H         44.12928        28.68241        -2.65941
O         28.72984        33.53011        -1.65963
H         27.93372        34.06325        -1.86860
O         51.30579        39.02501        -1.66127
H         50.50559        38.45325        -1.75245
O         43.23104        32.66462        -1.73719
H         42.47181        32.32303        -2.28197
O         39.25534        47.91940        -1.05145
H         38.38393        48.21779        -1.38350
O         27.27947        44.70454        -1.85165
H         27.97331        45.04693        -2.45428
O         53.20294        30.74324        -0.63829
H         52.37452        31.26850        -0.74925
H         27.17584        26.96811         1.62748
H         26.01648        29.18043         1.91926
H         26.07108        31.62523         1.87556
H         25.89002        33.45059         1.19646
H         25.83901        35.82952         0.82130
H         25.84889        37.74307         0.69925
H         25.84189        40.14629         0.59942
H         26.12129        42.05674         1.04075
H         26.07267        44.48063         0.87256
H         27.09111        46.66432         0.21915
H         29.27093        25.72061         1.44272
H         29.23760        47.79264         0.20462
H         32.91771        23.52102         1.11588
H         30.84004        24.69287         0.68059
H         32.87986        49.92375         0.05882
H         30.78547        48.73571        -0.15330
H         34.70223        22.54490         1.17712
H         34.54168        50.83316         0.16909
H         36.72269        21.32129         0.61146
H         36.56082        51.92262         0.99830
H         40.47718        19.12875         0.32050
H         38.34965        20.33875         0.47990
H         39.98935        53.97562         1.57147
H         37.98292        52.71643         2.14761
H         42.85652        19.09528        -0.19197
H         42.46030        54.02211         1.11309
H         44.97687        20.21964        -0.70037
H         44.63062        52.91575         0.97599
H         48.84759        22.52019        -0.42754
H         46.83270        21.29469        -0.95430
H         48.35650        50.77774         0.27875
H         46.26954        51.91382         0.63560
H         50.47971        23.66274        -0.37213
H         50.12617        49.80168         0.49642
H         52.43970        24.82424         0.43292
H         52.14969        48.62299        -0.24846
H         55.95337        26.76877         0.60490
H         54.04249        25.52688         1.39822
H         55.84027        46.43714        -1.10648
H         53.84002        47.58671        -0.29716
H         57.06789        28.89403         0.04219
H         57.13206        31.35586        -0.01860
H         56.64902        32.92682        -1.41418
H         56.73733        35.30841        -1.96873
H         57.12862        37.43194        -1.66738
H         57.14022        39.84356        -2.06894
H         57.07607        41.98321        -2.14952
H         57.00607        44.43241        -1.90886
