         600
 CSIRO Nanostructure Databank - Neutral Graphene Oxide Data Set
C         23.01371        27.44838        -0.81476
C         23.03681        28.83334        -0.77166
C         23.03104        31.74948        -0.70316
C         23.02692        33.11843        -0.77332
C         23.01396        36.01818        -1.21679
C         23.01253        37.40812        -1.17388
C         23.00930        40.26886        -0.54136
C         23.00427        41.61962        -0.33748
C         22.97034        44.54327        -0.10169
C         22.98006        45.81331         0.37449
C         25.43487        24.61756        -0.66318
C         24.22414        25.31638        -0.82242
C         25.43961        27.39422        -1.40618
C         24.19475        26.69509        -1.04054
C         25.43884        28.91334        -1.56507
C         24.20846        29.58586        -0.99746
C         25.46981        31.71780        -1.03883
C         24.22825        31.00074        -0.91204
C         25.47051        33.12857        -1.05897
C         24.22713        33.84977        -1.01251
C         25.47049        35.95652        -1.45538
C         24.20226        35.25761        -1.20908
C         25.47059        37.48958        -1.39997
C         24.20021        38.17036        -1.11215
C         25.46509        40.28057        -0.78431
C         24.22063        39.55752        -0.81380
C         25.46188        41.68071        -0.59662
C         24.21326        42.39006        -0.40860
C         25.43896        44.58621        -0.46062
C         24.18677        43.78163        -0.24938
C         25.48037        45.86805         0.31942
C         24.23178        46.39646         0.96687
C         25.40312        48.58926         1.04522
C         24.23746        47.89536         1.04697
C         27.91521        23.21368        -0.02800
C         27.90758        24.59192        -0.34198
C         26.67038        25.26126        -0.67313
C         27.97755        27.43055        -0.90113
C         26.74267        26.65499        -1.13839
C         27.95151        28.85804        -0.96166
C         26.72976        29.58318        -1.11975
C         27.95634        31.71124        -0.94182
C         26.72253        30.98785        -1.04213
C         27.95743        33.13581        -0.98210
C         26.72330        33.85126        -1.08564
C         27.95260        35.99284        -1.13038
C         26.73824        35.25566        -1.19994
C         27.95567        37.43387        -1.09472
C         26.73994        38.17298        -1.10463
C         27.96008        40.27822        -0.79889
C         26.71947        39.56738        -0.89334
C         27.95511        41.69771        -0.66435
C         26.70998        42.40649        -0.55456
C         27.93680        44.52214        -0.25437
C         26.71688        43.79993        -0.36665
C         27.93013        45.91406         0.08268
C         26.67814        46.56926         0.41467
C         27.91070        48.65817         0.92842
C         26.67987        47.94478         0.84011
C         27.95562        50.02834         1.31845
C         30.34274        23.20099         0.10274
C         29.10057        22.53524         0.17706
C         30.36128        24.60785        -0.12067
C         29.14086        25.30455        -0.36200
C         30.39784        27.45010        -0.46208
C         29.16300        26.73624        -0.58162
C         30.40443        28.86658        -0.59002
C         29.17999        29.57562        -0.78573
C         30.42257        31.72089        -0.77583
C         29.18718        31.00191        -0.83620
C         30.42643        33.13860        -0.87515
C         29.19061        33.85412        -0.96629
C         30.42409        35.99546        -1.00002
C         29.18470        35.28076        -1.01739
C         30.43191        37.42457        -0.98990
C         29.19721        38.13625        -0.97267
C         30.42704        40.28548        -0.83842
C         29.19210        39.56372        -0.86388
C         30.40421        41.69813        -0.82196
C         29.18556        42.41725        -0.68442
C         30.38049        44.58796        -0.40901
C         29.17753        43.84566        -0.47245
C         30.38713        45.94836        -0.02065
C         29.14769        46.61896         0.23416
C         30.37949        48.71271         0.73427
C         29.14833        47.99935         0.63524
C         30.38690        50.09249         1.09548
C         29.14457        50.71736         1.38961
C         32.80446        20.36938         0.40228
C         31.60197        21.06681         0.33957
C         32.82378        23.17638         0.21262
C         31.58687        22.47012         0.23674
C         32.83356        24.60335         0.07272
C         31.61148        25.31785        -0.10035
C         32.85423        27.45081        -0.14040
C         31.62530        26.73893        -0.23535
C         32.85900        28.88308        -0.25759
C         31.63925        29.58951        -0.48929
C         32.89245        31.72171        -0.55012
C         31.65569        31.00778        -0.60687
C         32.91588        33.13516        -0.77586
C         31.66846        33.85570        -0.91914
C         32.89336        36.00286        -1.23773
C         31.64465        35.26210        -1.02089
C         32.91419        37.45720        -1.03121
C         31.67963        38.15218        -0.95280
C         32.92834        40.27388        -0.87976
C         31.68050        39.57403        -0.88741
C         32.94529        41.71735        -0.84792
C         31.66824        42.42856        -0.99898
C         32.90401        44.59910        -0.41690
C         31.64671        43.94374        -0.78778
C         32.87354        45.97104        -0.04562
C         31.62919        46.66217         0.11957
C         32.85658        48.75290         0.58859
C         31.62199        48.03458         0.48249
C         32.85414        50.16595         0.89389
C         31.63218        50.82412         1.15472
C         32.83298        52.92919         1.53488
C         31.66152        52.22072         1.47591
C         35.31105        19.02126         1.23845
C         35.29837        20.23589         0.34083
C         34.02830        21.04294         0.39837
C         35.30280        23.17375         0.29566
C         34.05426        22.45754         0.30804
C         35.31111        24.58960         0.22684
C         34.07412        25.30528         0.10052
C         35.31517        27.42487         0.18618
C         34.08363        26.72945         0.03154
C         35.27244        28.88489         0.31864
C         34.06449        29.61352        -0.09338
C         35.36529        31.73339        -0.24722
C         34.10706        31.01758        -0.27230
C         35.37762        33.13886        -0.51875
C         34.15805        33.81486        -0.78807
C         35.43722        36.01100        -0.87983
C         34.20988        35.24008        -1.14507
C         35.41480        37.41437        -0.91714
C         34.15329        38.14446        -0.98815
C         35.43985        40.31458        -1.12541
C         34.14785        39.56007        -0.92285
C         35.39429        41.72687        -0.60788
C         34.13859        42.43242        -0.64924
C         35.30700        44.54367        -0.04614
C         34.10837        43.86669        -0.41242
C         35.33745        45.93877         0.10671
C         34.10303        46.67510         0.12423
C         35.32866        48.83235         0.31455
C         34.07243        48.06751         0.38522
C         35.32063        50.24705         0.71988
C         34.09511        50.90191         0.95729
C         35.31240        53.03484         1.27725
C         34.09462        52.30567         1.27791
C         35.40418        54.44786         1.62869
C         37.74707        18.96203         1.07674
C         36.47863        18.39273         1.49708
C         37.76563        20.34509         0.71069
C         36.54790        21.05314         0.53469
C         37.78645        23.17069         0.39630
C         36.54287        22.45327         0.39899
C         37.78955        24.59349         0.32720
C         36.55335        25.30737         0.26932
C         37.80957        27.45310         0.27699
C         36.54966        26.73564         0.27203
C         37.84306        28.86434         0.21226
C         36.60313        29.64379         0.33784
C         37.83912        31.72785        -0.20164
C         36.59335        31.05692        -0.05881
C         37.85231        33.14246        -0.41382
C         36.62421        33.85409        -0.54701
C         37.88090        35.99248        -0.59948
C         36.64509        35.28154        -0.67195
C         37.87542        37.41732        -0.57760
C         36.64684        38.14266        -0.72127
C         37.85944        40.25822        -0.37518
C         36.66083        39.55226        -0.67264
C         37.83227        41.66911        -0.13432
C         36.56761        42.34692        -0.18886
C         37.77731        44.45794         0.62567
C         36.49368        43.73953         0.27730
C         37.77079        45.92328         0.53536
C         36.60319        46.61522         0.32135
C         37.95657        48.82112         0.40972
C         36.63181        48.09288         0.21576
C         37.80890        50.26494         0.81809
C         36.55241        50.93978         0.83290
C         37.76227        53.07692         0.90310
C         36.53895        52.35572         1.02490
C         37.65014        54.54592         0.59097
C         36.53035        55.16045         1.39920
C         40.16757        16.10384         1.39848
C         39.00182        16.82244         1.41173
C         40.16817        18.88922         0.72437
C         38.95957        18.22936         1.09108
C         40.22454        20.29148         0.55074
C         39.00865        21.03538         0.57252
C         40.26316        23.15247         0.38519
C         39.01614        22.45298         0.43676
C         40.26836        24.57467         0.33007
C         39.03566        25.29860         0.31001
C         40.28723        27.42685         0.20322
C         39.04324        26.72458         0.25926
C         40.29968        28.84758         0.10240
C         39.06799        29.56902         0.07224
C         40.30737        31.69238        -0.16883
C         39.06897        30.99794        -0.07699
C         40.30475        33.09337        -0.40215
C         39.10432        33.83376        -0.49939
C         40.33362        36.00748        -0.58857
C         39.12061        35.27818        -0.58302
C         40.34098        37.42030        -0.44245
C         39.10073        38.13121        -0.42605
C         40.32388        40.25720        -0.08413
C         39.09873        39.54784        -0.28707
C         40.30106        41.65898         0.15301
C         39.05219        42.36753         0.18044
C         40.27542        44.48965         0.64810
C         39.06126        43.75442         0.48046
C         40.28488        45.88460         0.92634
C         38.99896        46.59610         1.01126
C         40.30450        48.76489         1.58971
C         38.98028        48.06407         1.23935
C         40.25573        50.28047         1.35109
C         38.98661        50.97284         1.03346
C         40.23083        53.11386         0.66738
C         38.98529        52.40280         0.92209
C         40.17564        54.52589         0.46736
C         38.98042        55.26336         0.58942
C         40.22436        57.37341         0.42194
C         39.01183        56.66982         0.52561
C         42.62318        16.02476         1.04125
C         41.40549        16.69615         0.98962
C         42.72565        18.82456         0.36789
C         41.37241        18.08150         0.51540
C         42.71433        20.29092         0.46515
C         41.48573        20.99313         0.43948
C         42.73714        23.12416         0.40850
C         41.49332        22.42265         0.41253
C         42.74708        24.55447         0.34714
C         41.51611        25.27749         0.30289
C         42.76658        27.40016         0.20596
C         41.52320        26.69992         0.23461
C         42.77425        28.82745         0.12952
C         41.54579        29.55618         0.05957
C         42.80408        31.67268        -0.02706
C         41.55480        30.97373        -0.05702
C         42.84100        33.10401        -0.25336
C         41.58885        33.76443        -0.64684
C         42.87478        35.98254        -0.52042
C         41.60533        35.28639        -0.76354
C         42.84314        37.45177        -0.54760
C         41.56764        38.15735        -0.36749
C         42.80576        40.24006         0.19659
C         41.57207        39.54504        -0.13469
C         42.76027        41.66767         0.45931
C         41.52663        42.37318         0.37783
C         42.74584        44.50889         0.65547
C         41.52242        43.78543         0.56339
C         42.74218        45.93811         0.71847
C         41.50373        46.64211         0.89175
C         42.73283        48.79334         0.82549
C         41.52017        48.06727         0.99301
C         42.76383        50.23143         0.80019
C         41.53076        51.01480         1.02565
C         42.70076        53.09744         0.33733
C         41.45472        52.41807         0.57536
C         42.69186        54.50872         0.13712
C         41.38716        55.22286        -0.08680
C         42.67497        57.36990         0.11468
C         41.42648        56.69707         0.21829
C         43.85481        16.69925         0.89366
C         45.18207        18.81915         0.78108
C         43.94180        18.07704         0.69913
C         45.18732        20.24068         0.65570
C         43.95193        20.97824         0.54458
C         45.21504        23.10661         0.48442
C         43.96617        22.40299         0.48769
C         45.22506        24.52929         0.39391
C         43.99031        25.25633         0.33351
C         45.24721        27.38808         0.24097
C         43.99883        26.68065         0.26229
C         45.25858        28.80840         0.19026
C         44.01403        29.52915         0.14607
C         45.27808        31.66500         0.27253
C         44.00433        30.94714         0.13301
C         45.28019        33.15679         0.12154
C         44.01792        33.83867        -0.21783
C         45.32046        35.99242        -0.08873
C         44.05841        35.28243        -0.35848
C         45.32877        37.38537         0.14684
C         44.13473        38.18835        -0.17450
C         45.17058        40.12488         1.08397
C         44.01146        39.55706         0.30558
C         45.19142        41.64882         1.05977
C         43.95461        42.37830         0.72299
C         45.22779        44.52024         0.65580
C         43.98052        43.79419         0.70045
C         45.21025        45.94437         0.56164
C         43.97163        46.65721         0.64413
C         45.19999        48.80254         0.52674
C         43.96722        48.08412         0.64070
C         45.19946        50.22933         0.48722
C         43.95331        50.93862         0.55806
C         45.15826        53.09398         0.22789
C         43.93042        52.38401         0.39849
C         45.13955        54.51315         0.03840
C         43.89068        55.22812         0.02793
C         43.84946        56.67090        -0.03065
C         47.61247        18.82957         0.94432
C         46.41298        18.14480         0.95010
C         47.65422        20.23362         0.78689
C         46.42716        20.94937         0.67036
C         47.68494        23.08199         0.53655
C         46.44232        22.38196         0.56155
C         47.69781        24.50240         0.42512
C         46.46922        25.22885         0.36079
C         47.72017        27.35459         0.23155
C         46.47871        26.65733         0.27382
C         47.73431        28.77772         0.17077
C         46.51012        29.51222         0.14867
C         47.76402        31.65090         0.03607
C         46.54551        30.93223         0.10469
C         47.79635        33.08147        -0.01342
C         46.53809        33.82248        -0.37959
C         47.75990        35.94233         0.25049
C         46.54159        35.28029        -0.01889
C         47.73626        37.32445         0.56985
C         46.52445        38.05593         0.54010
C         47.70124        40.22057         0.76705
C         46.51115        39.48756         0.75167
C         47.74184        41.64864         0.71089
C         46.49758        42.40007         0.92930
C         47.69229        44.51373         0.41120
C         46.46277        43.83230         0.61137
C         47.67652        45.94465         0.35742
C         46.44293        46.65652         0.45087
C         47.67540        48.79946         0.41814
C         46.43589        48.08607         0.44063
C         47.65371        50.23473         0.45665
C         46.43827        50.94661         0.42022
C         47.60408        53.12885         0.09155
C         46.41257        52.39786         0.27269
C         47.56129        54.51974        -0.14523
C         46.36217        55.19857        -0.16180
C         50.15010        20.25509         0.79552
C         48.91445        20.94234         0.73588
C         50.17180        23.05486         0.54999
C         48.92494        22.35835         0.60735
C         50.18208        24.48602         0.45397
C         48.94983        25.20242         0.38487
C         50.19506        27.31642         0.23222
C         48.95473        26.62308         0.27228
C         50.20260        28.76383         0.16329
C         48.97799        29.48623         0.16412
C         50.23638        31.60002         0.12502
C         49.00411        30.91079         0.09120
C         50.28804        33.07308        -0.19929
C         49.00167        33.80753         0.07118
C         50.26531        35.93237         0.37360
C         49.01494        35.21389         0.21060
C         50.26394        37.29958         0.63140
C         48.99836        38.00206         0.87916
C         50.24379        40.24212         0.53078
C         49.00003        39.52568         0.90023
C         50.16560        41.60925         0.25180
C         48.93818        42.34219         0.42307
C         50.15141        44.50723         0.15077
C         48.92518        43.78485         0.31827
C         50.14750        45.92666         0.19050
C         48.91019        46.66405         0.30717
C         50.21148        48.78904         0.60554
C         48.90057        48.07507         0.37987
C         50.18762        50.24393         0.22385
C         48.93589        50.96629         0.49728
C         50.12267        53.04635        -0.36842
C         48.91931        52.47123         0.24651
C         51.35390        20.92821         0.70963
C         52.66374        23.03968         0.46645
C         51.40013        22.33519         0.57878
C         52.68320        24.46153         0.45516
C         51.42446        25.18895         0.45258
C         52.67446        27.34768         0.44611
C         51.40645        26.59686         0.35676
C         52.67959        28.72225        -0.16765
C         51.41930        29.47626         0.14670
C         52.72079        31.56779         0.56238
C         51.43603        30.87579         0.19711
C         52.71101        33.05063         0.33657
C         51.54267        33.77598         0.25885
C         52.73755        35.93208         0.51004
C         51.52783        35.21055         0.38003
C         52.77063        37.34115         0.51478
C         51.52660        38.07810         0.92757
C         52.68898        40.18908         0.17002
C         51.47774        39.51891         0.45170
C         52.67655        41.60540        -0.08444
C         51.36012        42.31206        -0.33695
C         52.59303        44.48278        -0.16823
C         51.39245        43.79685        -0.04180
C         52.60643        45.92691        -0.16590
C         51.38055        46.64464         0.01725
C         52.58815        48.76653        -0.23855
C         51.40172        48.05404         0.05042
C         52.60043        50.20186        -0.28626
C         51.33635        50.92322        -0.12604
C         51.26455        52.32722        -0.48281
C         55.09281        23.01784         0.18169
C         53.89318        22.34773         0.34120
C         55.14761        24.43368         0.18616
C         53.93344        25.13525         0.36216
C         55.20082        27.31988         0.03284
C         53.97468        26.60311         0.43695
C         55.19114        28.73296        -0.07559
C         53.96880        29.47561         0.02885
C         55.20392        31.58446        -0.06174
C         53.97597        30.86048         0.09697
C         55.24005        33.01856         0.11738
C         54.01134        33.70516         0.56044
C         55.27236        35.91950         0.32752
C         54.01920        35.21567         0.62009
C         55.23268        37.35074         0.20375
C         53.98746        38.04885         0.32463
C         55.14918        40.17000        -0.13591
C         53.94826        39.47750         0.15233
C         55.12959        41.59658        -0.29098
C         53.86864        42.30587        -0.24566
C         55.03953        44.45807        -0.44496
C         53.85885        43.76494        -0.33408
C         55.12827        45.95113        -0.24885
C         53.80018        46.64021        -0.35637
C         55.00861        48.75516        -0.80914
C         53.80207        48.04760        -0.47477
C         54.99272        50.14626        -0.78540
C         53.80904        50.85752        -0.51091
C         57.63692        24.48763        -0.09902
C         56.40701        25.15984         0.00437
C         57.63265        27.30864        -0.32485
C         56.40546        26.59385        -0.10415
C         57.64516        28.72874        -0.41259
C         56.41459        29.44515        -0.27232
C         57.61358        31.57928        -0.70337
C         56.38691        30.86292        -0.33087
C         57.62624        33.09960        -0.54792
C         56.41823        33.76010        -0.01190
C         57.77147        35.90799         0.27080
C         56.44980        35.18512         0.16601
C         57.68959        37.36305        -0.14944
C         56.44333        38.05903        -0.06340
C         57.59630        40.17596        -0.57931
C         56.39886        39.47372        -0.24554
C         57.55992        41.59348        -0.77357
C         56.33213        42.27982        -0.52944
C         57.49768        44.46164        -1.15403
C         56.32232        43.74534        -0.54125
C         57.18539        45.77051        -1.84551
C         56.17953        46.61803        -1.11281
C         57.25750        48.62651        -1.99214
C         56.16373        47.98109        -1.28409
C         58.83377        25.17564        -0.30130
C         60.08193        27.29864        -0.59881
C         58.85722        26.57825        -0.41615
C         60.09571        28.66588        -0.68076
C         58.88819        29.43761        -0.60436
C         60.07147        31.62949        -0.90465
C         58.89369        30.85056        -0.73252
C         60.08661        33.01012        -0.82760
C         58.93220        33.79449        -0.51508
C         60.15239        35.95061        -0.48595
C         58.96664        35.17321        -0.29793
C         60.11245        37.31827        -0.53736
C         58.86949        38.05054        -0.46016
C         59.96959        40.18414        -1.16118
C         58.82614        39.46763        -0.73262
C         59.90562        41.53544        -1.45439
C         58.71650        42.27686        -1.27093
C         59.61879        44.34869        -2.37047
C         58.64711        43.67512        -1.64922
C         59.54511        45.75629        -2.60522
C         58.43241        46.50181        -2.27141
C         58.34919        47.92638        -2.42692
O         43.70915        38.03224        -1.57870
O         40.99602        50.95449         2.41077
O         25.48306        36.76754        -2.67793
O         26.17773        26.78159        -2.51139
O         41.64100        34.42691        -1.95697
O         36.91087        43.91061         1.68634
O         45.33087        32.59066         1.45424
O         53.39208        27.17491         1.69214
O         42.00003        18.29937        -0.78794
O         35.85848        29.37631         1.57688
O         31.64231        43.36662        -2.13671
O         38.55173        47.23854         2.34741
O         57.39779        32.47382        -1.85934
O         49.03307        38.76171         2.16257
O         57.38095        44.39884         0.29598
O         49.08942        51.93174         1.59902
O         33.61053        35.56027        -2.44923
O         54.11858        34.39289         1.85752
O         35.99664        48.59521        -1.01169
O         45.85881        42.15142         2.26304
O         52.76943        31.45361         2.03368
H         53.38408        32.14179         2.37148
O         52.61453        28.46013        -1.61596
H         52.58861        29.32445        -2.07875
O         46.44484        33.73748        -1.84751
H         47.09878        34.36185        -2.22699
O         25.36894        45.01438        -1.88854
H         25.43835        44.20223        -2.43534
O         38.58984        48.85689        -0.90905
H         37.86804        49.04745        -1.55339
O         58.04490        35.94718         1.72762
H         57.27141        36.37108         2.15845
O         41.17947        55.15612        -1.56703
H         40.28842        55.53106        -1.74245
O         44.91417        39.73501         2.47092
H         45.41981        40.37095         3.02979
O         56.50527        45.35489        -3.09072
H         56.39380        46.15764        -3.64346
O         37.21210        54.63066        -0.81860
H         36.37108        54.12945        -0.88931
O         55.54695        46.15784         1.14417
H         56.38985        45.65253         1.25435
O         50.39066        48.77535         2.07200
H         51.17088        49.33253         2.27963
O         51.63385        38.15937         2.39788
H         50.74480        38.45248         2.72413
O         51.15711        42.22298        -1.80322
H         51.92637        42.65867        -2.22915
O         24.26385        45.91131         2.37326
H         25.03107        46.34278         2.80705
O         50.39970        33.10318        -1.67994
H         49.59422        32.67161        -2.03885
O         25.36265        29.17606        -3.00393
H         25.85802        28.44337        -3.44048
O         35.58781        40.43805        -2.59510
H         35.56515        39.53064        -2.96819
O         35.36002        19.71851        -1.04030
H         36.19980        19.21760        -1.12305
O         40.51743        48.60834         3.01265
H         39.96849        47.83927         3.30209
H         22.08264        26.91169        -0.58301
H         22.10643        29.34894        -0.49750
H         22.07782        31.22939        -0.54336
H         22.07452        33.65260        -0.66084
H         22.04235        35.50729        -1.18167
H         22.03933        37.91262        -1.10795
H         22.05738        39.72387        -0.49913
H         22.05251        42.12659        -0.13186
H         22.01103        44.08939        -0.39449
H         22.04389        46.38500         0.45793
H         25.37199        23.55015        -0.41351
H         23.27758        24.78560        -0.64452
H         25.36999        49.67994         1.17637
H         23.28174        48.41567         1.20940
H         26.97326        22.65369         0.02836
H         27.02701        50.55810         1.56772
H         29.05651        21.46068         0.39463
H         29.11600        51.77292         1.68941
H         32.78335        19.27150         0.43069
H         30.66590        20.49429         0.33672
H         32.79777        53.99994         1.77773
H         30.72244        52.75239         1.67737
H         34.36273        18.58570         1.58468
H         34.55132        54.92648         2.13194
H         36.47884        17.45629         2.07335
H         36.58132        56.21949         1.69193
H         40.16356        15.04380         1.69202
H         38.07031        16.31684         1.69985
H         40.22518        58.47022         0.50690
H         38.07430        57.23606         0.61289
H         42.63629        14.96053         1.31843
H         42.69346        58.46865         0.17088
H         44.76891        16.11231         1.05675
H         44.78561        57.23824        -0.10882
H         48.54030        18.25532         1.06039
H         46.43141        17.05319         1.06326
H         48.49423        55.08252        -0.27938
H         46.37440        56.28253        -0.32874
H         50.17275        19.16292         0.90060
H         50.08453        54.06387        -0.78164
H         52.28294        20.34535         0.75573
H         52.14306        52.79968        -0.94278
H         56.01000        22.42757         0.05505
H         53.90820        21.24986         0.33667
H         55.90690        50.71731        -0.99791
H         53.85447        51.95476        -0.50741
H         57.67624        23.39348        -0.01233
H         57.22727        49.71493        -2.13793
H         59.77749        24.61518        -0.36720
H         61.02266        26.73288        -0.66565
H         61.05636        29.18051        -0.81793
H         61.03205        31.11857        -1.06034
H         61.05783        33.51381        -0.92884
H         61.11152        35.44515        -0.66601
H         61.05004        37.86329        -0.70701
H         60.92735        39.66596        -1.29895
H         60.81033        42.04208        -1.81729
H         60.51218        43.81651        -2.72622
H         60.42161        46.25875        -3.04127
H         59.19658        48.45660        -2.88701
