         651
 CSIRO Nanostructure Databank - Neutral Graphene Oxide Data Set
C          5.86346        31.66886        -0.00995
C          5.87253        33.02905        -0.16334
C          8.29574        27.38216         0.88896
C          8.24071        28.80855         0.86485
C          7.08458        29.50171         0.51500
C          8.29610        31.57842         0.07488
C          7.08667        30.91092         0.19983
C          8.33458        32.96521        -0.42767
C          7.10187        33.77556        -0.31226
C          8.42047        35.86086        -0.63659
C          7.17573        35.14416        -0.45296
C          8.42277        37.24800        -0.75568
C         10.79707        23.10272         0.85368
C         10.71757        24.49672         1.11390
C          9.51435        25.23512         0.96551
C         10.73111        27.33482         1.59706
C          9.47068        26.64599         1.08942
C         10.77242        28.85483         1.40066
C          9.47970        29.58988         1.15769
C         10.80079        31.76306         0.64051
C          9.50757        31.02061         0.69499
C         10.95480        32.86797        -0.39726
C          9.65444        33.64519        -0.64773
C         10.87858        35.78047        -0.88006
C          9.68586        35.13289        -0.67628
C         10.87649        37.22639        -1.15049
C          9.62744        37.99295        -0.96960
C         10.90870        40.12047        -1.04312
C          9.67034        39.37781        -1.04610
C         10.91722        41.52302        -1.11547
C         13.27939        18.84827         0.24486
C         13.24153        20.22138         0.49729
C         12.05543        21.00287         0.44504
C         13.24708        23.00911         1.33381
C         12.00069        22.35101         0.84805
C         13.20897        24.50407         1.50702
C         11.96016        25.24859         1.24499
C         13.20917        27.31286         0.64738
C         11.97740        26.61405         1.16391
C         13.20336        28.82963         0.81248
C         12.06482        29.53259         1.06841
C         13.35240        31.77408         0.77261
C         12.07058        31.03341         1.02889
C         13.33668        33.15526         0.20369
C         12.16883        33.75045        -0.16173
C         13.40853        35.88213        -0.66420
C         12.19152        35.02221        -1.01269
C         13.42929        37.25659        -0.64698
C         12.20838        37.99830        -1.03158
C         13.36146        40.15949        -0.61936
C         12.15182        39.44174        -0.84772
C         13.35278        41.56074        -0.73335
C         12.12743        42.27059        -0.98326
C         13.23614        44.48483        -0.46950
C         12.10724        43.67292        -1.02984
C         13.38548        45.86847        -1.06649
C         15.69669        14.59677        -0.01442
C         15.70868        15.92359         0.39008
C         14.48235        16.68905         0.37310
C         15.82813        18.73884         0.11566
C         14.48400        18.06868         0.32553
C         15.75448        20.27595         0.39710
C         14.49294        20.79392         1.13213
C         15.73204        23.01753         1.10374
C         14.55827        22.32016         1.14793
C         15.78274        24.47571         1.35637
C         14.47971        25.29159         1.55174
C         15.77197        27.24488         0.61961
C         14.48054        26.69865         1.18614
C         15.79121        28.75087         0.43419
C         14.47491        29.53017         0.47202
C         15.81507        31.62039         0.37580
C         14.57701        30.98556         0.57258
C         15.86622        33.02899         0.14892
C         14.62629        33.64656        -0.43062
C         15.92666        35.92792        -0.20925
C         14.68110        35.15446        -0.58949
C         15.83221        37.36314         0.06789
C         14.61181        38.02521        -0.26669
C         15.75842        40.19508         0.09845
C         14.58144        39.43829        -0.28718
C         15.76994        41.54990        -0.12042
C         14.66349        42.28761        -0.85846
C         15.68141        44.47933        -0.23398
C         14.56780        43.76109        -0.49212
C         15.63464        45.97317        -0.01662
C         14.52592        46.60423        -0.83926
C         15.83230        48.71094        -0.94175
C         14.65708        47.98008        -1.19603
C         15.91724        50.11167        -1.25725
C         18.16973        10.49997        -1.51428
C         18.21402        11.67555        -0.52333
C         16.94219        12.51273        -0.58934
C         18.16919        14.42593         0.30460
C         16.89503        13.81237        -0.16209
C         18.19215        15.78837         0.92460
C         16.95824        16.61370         0.74736
C         18.31686        18.70224         0.74367
C         17.00537        17.98584         0.71662
C         18.35481        20.19760         0.88491
C         17.01225        20.86136         1.14305
C         18.25263        23.02459         1.47445
C         17.09604        22.34829         0.78111
C         18.32482        24.44510         1.32539
C         17.02960        25.22218         1.07673
C         18.25103        27.35906         1.23177
C         17.02389        26.67956         1.24696
C         18.28302        28.77579         0.94075
C         17.06289        29.48380         0.61812
C         18.30362        31.60550         0.32385
C         17.04518        30.86566         0.45383
C         18.30719        33.06445         0.47931
C         17.08293        33.75891         0.27928
C         18.28106        35.91122         0.51428
C         17.09845        35.18542         0.25894
C         18.22128        37.36672         0.63659
C         16.99196        38.04204         0.52706
C         18.18604        40.24807         1.07727
C         16.84700        39.49451         0.94398
C         17.98339        41.73743         1.19429
C         16.83149        42.37355         0.48098
C         18.21749        44.56150         0.18590
C         16.96911        43.77573        -0.04582
C         18.17871        46.02855         0.19843
C         16.98754        46.67473        -0.14861
C         18.32321        48.77545        -0.57096
C         17.00399        48.04945        -0.44739
C         18.16357        50.23408        -0.15380
C         17.03032        50.87525        -0.93828
C         18.25040        53.02230        -1.07230
C         17.10854        52.24522        -1.29031
C         18.30434        54.36747        -1.48144
C         20.88790         6.39051        -2.38337
C         20.81889         7.78488        -2.09939
C         19.56834         8.44303        -1.90643
C         20.70254        10.57636        -1.60508
C         19.50694         9.80343        -1.64922
C         20.64952        11.97550        -1.23066
C         19.46108        12.51365        -0.74806
C         20.66410        14.75547        -0.42955
C         19.38350        13.92620        -0.41241
C         20.73770        15.95233         0.40350
C         19.55022        16.44914         1.22750
C         20.79235        18.59521         1.63922
C         19.56128        17.95014         1.03820
C         20.77815        20.10058         1.91096
C         19.54940        20.87983         1.48462
C         20.77531        23.09114         2.09655
C         19.37917        22.26947         2.13280
C         20.73024        24.45917         1.39396
C         19.49244        25.21334         1.89740
C         20.70824        27.35250         1.60728
C         19.48668        26.67501         1.51222
C         20.72244        28.77782         1.37953
C         19.51847        29.44226         0.99734
C         20.78492        31.64159         0.93399
C         19.60067        30.84943         0.58180
C         20.76170        33.04498         0.84943
C         19.52234        33.77251         0.63784
C         20.77154        35.96478         0.47413
C         19.49824        35.19243         0.64689
C         20.64579        37.39396         0.97062
C         19.44878        38.09029         0.94343
C         20.73040        40.21756         1.19543
C         19.39545        39.56543         1.16024
C         20.93579        41.61972         1.48402
C         19.08315        42.69524         1.48779
C         20.62886        44.61166         0.87186
C         19.30470        43.91678         0.94768
C         20.65178        46.08881         0.89135
C         19.33344        46.81861         0.79903
C         20.69904        48.84996         0.23170
C         19.49891        48.15640         0.15247
C         20.67585        50.29308        -0.07877
C         19.48370        50.94897        -0.28886
C         20.72014        53.10997        -0.60277
C         19.40809        52.45070        -0.27649
C         20.71156        54.42826        -1.01374
C         19.49758        55.12480        -1.40376
C         20.72368        57.23223        -1.91833
C         19.53422        56.47868        -1.82194
C         20.78488        58.56428        -2.35504
C         23.36149         3.81958        -3.54572
C         22.13469         4.42832        -3.15808
C         23.38585         6.40994        -2.31778
C         22.10219         5.71614        -2.60641
C         23.31399         7.90709        -2.18745
C         22.00213         8.57091        -2.11167
C         23.16014        10.76510        -1.97258
C         21.95054         9.96398        -1.89654
C         23.09948        12.12302        -1.68218
C         21.87621        12.75615        -1.26064
C         23.14181        14.82752        -0.68584
C         21.91107        14.08765        -0.81700
C         23.17833        16.07159        -0.00137
C         21.94896        16.62249         0.53703
C         23.30121        18.27376         1.67000
C         22.03158        17.83083         1.32416
C         23.29765        20.34573         2.08664
C         22.03237        20.91469         1.90396
C         23.23272        23.04667         1.58231
C         21.99531        22.31248         1.68883
C         23.20677        24.48175         1.70454
C         22.00737        25.22269         1.67780
C         23.17420        27.37314         2.14434
C         21.94726        26.62220         1.84605
C         23.19667        28.86879         1.83869
C         21.92568        29.52671         1.45351
C         23.25031        31.61927         1.52834
C         21.94358        30.92083         1.31673
C         23.19542        33.06646         1.17044
C         22.00683        33.76255         1.00272
C         23.19374        35.89759         1.03911
C         22.01631        35.21625         0.92323
C         23.18259        37.36132         0.84705
C         21.93635        38.07794         1.33268
C         23.15968        40.22909         0.63494
C         21.89685        39.52503         0.94054
C         23.20963        41.75185         0.62004
C         21.97422        42.39637         1.06056
C         23.20659        44.60788         1.08382
C         21.93248        43.87034         0.91508
C         23.12490        46.06309         1.25977
C         21.85803        46.77903         0.91620
C         23.18133        48.90137         0.74658
C         21.91767        48.19628         0.67311
C         23.12715        50.38026         0.53912
C         21.91598        51.03838        -0.00052
C         23.22080        53.08598        -0.49948
C         21.94672        52.40300        -0.29476
C         23.22124        54.36547        -1.05156
C         21.98735        55.15786        -1.07239
C         23.25181        57.20882        -1.96870
C         21.99622        56.59075        -1.51937
C         23.27319        58.54588        -2.31993
C         22.02008        59.26307        -2.48082
C         23.31469        61.26116        -3.03719
C         22.07966        60.61942        -2.85149
C         24.56726         4.43465        -3.38109
C         25.61608         6.70351        -3.52061
C         24.73308         5.75568        -2.67639
C         25.67195         8.12594        -2.99814
C         24.49552         8.73253        -2.51278
C         25.58448        10.90907        -2.58689
C         24.41941        10.13966        -2.36355
C         25.51703        12.38085        -2.52067
C         24.26746        12.99386        -1.94423
C         25.55799        14.96747        -1.07813
C         24.33979        14.30144        -1.24587
C         25.62269        16.20153        -0.35774
C         24.42516        16.75052         0.18134
C         25.69484        18.75790         1.03248
C         24.50525        17.94527         0.97245
C         25.70605        20.16688         1.38686
C         24.50972        20.94095         1.64033
C         25.74517        23.05993         1.30341
C         24.46629        22.34826         1.46894
C         25.75712        24.53226         1.57952
C         24.47640        25.16572         1.99590
C         25.74843        27.38652         1.85583
C         24.49659        26.66611         2.16702
C         25.69058        28.78012         1.51839
C         24.45835        29.45754         1.40399
C         25.66331        31.54938         0.73980
C         24.36834        30.80587         0.74170
C         25.59623        32.99077         0.33116
C         24.50400        33.74043         1.12836
C         25.71924        35.96563         0.67847
C         24.50678        35.22891         1.10942
C         25.77110        37.32633         0.81824
C         24.48476        38.09572         0.87326
C         25.42982        40.35762         1.45960
C         24.40413        39.56348         1.04564
C         25.58746        41.76691         1.22689
C         24.45625        42.49705         0.93872
C         25.69145        44.66553         1.18123
C         24.42876        43.94675         1.08616
C         25.71349        46.05530         1.13748
C         24.44858        46.82414         1.28542
C         25.72293        49.00146         1.28795
C         24.40654        48.27506         0.97957
C         25.73810        50.44300         0.75958
C         24.43931        51.12821         0.42991
C         25.68953        53.00411        -0.69103
C         24.46902        52.40816        -0.30395
C         25.71604        54.28289        -1.28402
C         24.44841        54.93457        -1.59057
C         25.76864        57.09532        -2.14287
C         24.46806        56.40385        -2.07401
C         25.74999        58.48796        -2.39874
C         24.54456        59.20396        -2.55934
C         24.52152        60.58318        -2.89747
C         26.83666         8.89067        -3.12506
C         28.05444        11.04094        -2.82212
C         26.82819        10.27808        -2.85356
C         28.08783        12.38889        -2.52551
C         26.80835        13.20214        -2.53251
C         28.11139        14.94637        -1.20841
C         26.81274        14.25812        -1.43675
C         28.05771        16.38424        -0.82294
C         26.84978        16.91537        -0.16063
C         28.19883        18.81120         0.70329
C         26.90463        18.16804         0.48493
C         28.21135        20.13138         1.39606
C         26.94657        20.90852         1.34335
C         28.25074        23.06593         1.45743
C         27.00516        22.29841         1.43822
C         28.23928        24.45639         1.52347
C         27.03550        25.18737         2.08918
C         28.17957        27.39191         1.57755
C         26.98803        26.69417         1.82371
C         28.15051        28.79326         1.28928
C         26.91426        29.48461         1.24404
C         28.11540        31.61639         0.75410
C         26.87785        30.90533         0.96308
C         28.10690        33.05564         0.49748
C         26.90271        33.72798         0.37028
C         28.17937        35.88987         0.11458
C         26.85365        35.19141         0.01496
C         28.16953        37.35001        -0.04596
C         27.02083        38.04098         0.57782
C         28.34425        40.14577         0.77351
C         27.27515        39.26403         1.14229
C         28.15958        41.62926         0.76269
C         26.94975        42.38799         1.32861
C         28.23773        44.61921         0.92926
C         26.97354        43.89485         1.24594
C         28.20588        46.02052         0.93319
C         26.97403        46.77545         1.00268
C         28.24182        48.85733         0.63934
C         26.98698        48.18518         0.90802
C         28.28225        50.32947         0.47211
C         27.00542        51.09707         0.34530
C         28.22608        52.97229        -0.87186
C         26.94226        52.15532        -0.76503
C         28.16696        54.31082        -1.32932
C         26.94414        54.97497        -1.57262
C         26.94045        56.34515        -1.97272
C         29.31126        13.11199        -2.35989
C         30.56189        15.11442        -1.62201
C         29.35363        14.40159        -1.82193
C         30.62408        16.36430        -0.98019
C         29.36941        17.10001        -0.66555
C         30.70714        18.78892         0.61706
C         29.37823        18.26969         0.22362
C         30.79011        20.12167         1.30998
C         29.51525        20.88582         1.55020
C         30.74059        23.06070         1.30818
C         29.53243        22.36507         1.39834
C         30.75285        24.52111         1.22015
C         29.43245        25.25748         1.06733
C         30.69505        27.42164         1.25808
C         29.48908        26.64544         1.73663
C         30.61150        28.77574         0.96347
C         29.36423        29.49972         0.97252
C         30.50687        31.58778         0.13508
C         29.31906        30.89658         0.70201
C         30.58423        33.06346         0.23641
C         29.35993        33.77114         0.39000
C         30.63957        35.93778         0.33416
C         29.37254        35.20984         0.25267
C         30.71739        37.30015         0.17732
C         29.49371        38.09703        -0.04560
C         30.73096        40.27299         0.26775
C         29.50182        39.53349         0.33405
C         30.70126        41.68471         0.33389
C         29.42015        42.42809         0.45752
C         30.71673        44.53329         0.66732
C         29.46055        43.88623         0.74347
C         30.77915        45.98858         0.91200
C         29.49101        46.77959         1.18694
C         30.67115        48.80347         0.09183
C         29.45791        48.17445         0.59829
C         30.64056        50.11516        -0.42061
C         29.53769        50.99195        -0.11242
C         29.43617        52.33019        -0.70741
C         31.84766        17.00897        -0.72852
C         33.12279        18.95364         0.03346
C         31.92184        18.24149        -0.04679
C         33.23089        20.25080         0.59329
C         32.11479        20.86507         1.42153
C         33.20109        23.05221         1.10737
C         32.01567        22.36341         1.22275
C         33.25026        24.52312         1.42538
C         31.92787        25.23685         1.22289
C         33.14149        27.38755         0.92709
C         31.94856        26.70476         1.15822
C         33.19288        28.85040         0.82053
C         31.85727        29.54222         0.75730
C         33.06837        31.56261        -0.25133
C         31.79124        30.83050         0.02215
C         33.06484        33.09549        -0.10314
C         31.80717        33.73221         0.29577
C         33.13710        35.83241         0.73082
C         31.81154        35.13014         0.86204
C         33.15162        37.28643         1.02070
C         31.93576        38.08380         0.54478
C         33.11365        40.27363        -0.13841
C         31.95500        39.54474         0.17470
C         33.11600        41.68885        -0.06540
C         31.91798        42.40281         0.23403
C         33.14033        44.52995         0.00741
C         31.91568        43.83484         0.34464
C         33.13118        45.91142        -0.14007
C         32.01970        46.70301         0.37022
C         31.87424        48.08832        -0.03923
C         34.40587        20.97828         0.47421
C         35.65997        23.06540         0.67838
C         34.45847        22.37133         0.80597
C         35.73366        24.49826         0.74763
C         34.41428        25.19425         0.72920
C         35.65001        27.42278         0.51531
C         34.38053        26.66888         0.58273
C         35.63914        28.76760         0.27929
C         34.39746        29.52938         0.24491
C         35.54677        31.64696        -0.68034
C         34.35660        30.84951        -0.13791
C         35.57110        33.08491        -0.14514
C         34.36194        33.77034         0.10786
C         35.60300        35.89835         0.59605
C         34.31968        35.16550         0.47060
C         35.61270        37.38654         0.61482
C         34.47265        37.95674         1.14642
C         35.64009        40.26613        -0.29834
C         34.34609        39.61966        -0.67117
C         35.61415        41.64863        -0.24646
C         34.37163        42.39573        -0.23692
C         34.34376        43.78111        -0.24344
C         36.89869        25.20894         0.66287
C         38.12065        27.41490         0.27174
C         36.95156        26.70214         0.90684
C         38.20914        28.89544         0.52882
C         36.90706        29.47318        -0.04296
C         38.11341        31.68847        -0.35597
C         36.87346        30.91682        -0.47169
C         38.06668        33.08504        -0.27042
C         36.81706        33.75164        -0.07708
C         38.09464        35.96631         0.04332
C         36.87687        35.16938         0.33297
C         38.04301        37.35110         0.06910
C         36.82511        38.10559         0.24562
C         36.81926        39.46654        -0.09160
C         39.40759        29.61587        -0.04037
C         40.57360        31.75600        -0.50282
C         39.36659        30.97086        -0.31832
C         40.53519        33.11818        -0.50628
C         39.30338        33.84984        -0.31645
C         39.29225        35.23727        -0.23715
O         23.46717         7.01353        -0.98725
O         27.16175        43.14580         2.54273
O         34.25974        38.67866        -1.45471
O         12.78308        31.66267         2.14094
O         22.05214        56.26740        -0.06440
O         32.97367        32.41517        -1.40751
O         12.36545        34.52913        -2.33641
O         20.59603        19.13453         2.97809
O         26.46485        39.74001         2.16571
O          8.92933        33.08435        -1.78619
O         31.81416        46.40968         1.84374
O         19.32034        20.87375         0.04116
O         10.02665        29.48175         2.50654
O         15.09834        29.09030        -0.80450
O         36.39937        35.35723         1.73255
O         23.12175        28.36052         3.21778
O         11.64450        37.59804        -2.32750
O         24.53083        13.00871        -3.41374
O         32.66649        29.60936         1.97870
O         28.73988        37.86236        -1.29370
O         32.20267        37.82744         2.01166
O         16.78870        42.19416         1.95645
O         19.13618        31.11102        -0.78444
O         28.43884        42.10339        -0.60112
O         17.88160        24.87280        -0.04875
O         23.63465        51.18110         1.66262
O         17.93123        43.92241        -1.13884
O         19.67595        14.83789        -1.53519
O         24.56798        25.76071         3.33618
O         26.82879        51.41439        -1.95751
O         24.30741        55.30443        -3.02484
O         30.89227        30.89693        -1.11753
O         28.82553        20.31714         2.71663
O         23.72019        46.50439         2.52505
O          9.92232        32.00650         1.75622
O         25.77530        24.08049         0.20400
O         21.30461        44.17828        -0.40863
O         29.21608        50.98655         1.35495
O         15.61747        35.57484        -1.62284
O         23.40728        19.13796         2.76504
O         24.85442        34.44672         2.35148
O         28.54107        17.27788        -1.87975
O         37.00634        29.79665        -1.45132
O         19.23947        18.27994        -0.34580
O         34.14143        25.74903        -0.58901
O         20.02664        42.19522         2.37932
O         18.11975        14.56435         1.76366
O         21.21999        23.24578         3.42281
O         26.45749        51.39335         1.65645
O         23.73189        37.80063        -0.41430
O         30.84976        18.88771         2.08773
O         23.19337        40.98678        -0.62427
O         27.58332        13.99297        -0.21404
O         15.32330        24.88842         2.68363
O         13.05829        23.60690         2.66413
O         12.89685        44.68527         0.95075
H         13.65249        45.18092         1.35881
O         31.56157        35.00229         2.30616
H         31.62912        35.91009         2.68349
O         33.55983        24.62046         2.84948
H         32.91982        24.06184         3.34016
O         17.81347        50.26011         1.25640
H         18.03516        51.16338         1.58766
O         16.09736        18.56332        -1.32171
H         17.06933        18.49733        -1.45262
O         25.77383        49.07345         2.73165
H         26.13552        49.95898         2.96890
O         19.42874        25.16680         3.33258
H         20.14176        24.55289         3.67346
O         29.45799        46.98777         2.63687
H         30.39197        47.13395         2.91751
O         36.99126        26.83015         2.35540
H         37.28828        27.75402         2.55521
O         26.49549        35.24558        -1.43059
H         26.52066        36.18623        -1.71523
O         19.10926        52.79207         1.13709
H         19.22925        53.76184         1.23625
O         18.66279        48.80263        -1.98783
H         18.74469        47.87684        -2.30022
O         20.62034        24.22178        -0.02147
H         20.40345        25.06373        -0.47360
O         20.95919        36.08837        -0.98275
H         20.13513        36.45779        -1.36605
O         29.21870        25.52214        -0.35065
H         29.08383        24.66784        -0.81167
O         19.05220        22.09245         3.51191
H         19.86148        22.39050         4.01964
O         35.38925        31.77202        -2.11132
H         35.66249        30.91284        -2.50503
O         15.55982        20.90904        -0.87388
H         15.89825        20.30373        -1.57604
O         38.19520        29.18397         1.96753
H         39.10040        29.03225         2.31249
O         23.67858        31.52493         2.91184
H         23.16300        32.16330         3.44724
O         13.13975        27.08245        -0.80094
H         13.99336        27.40519        -1.18624
O         26.85600        13.94617        -3.77744
H         25.93438        13.97120        -4.13186
O         29.68963        26.39289         3.15041
H         29.69230        27.24923         3.62598
O         10.70489        27.10485         3.04144
H         10.20592        27.85941         3.43594
O         17.81791        10.97732        -2.81754
H         17.10079        11.63896        -2.72744
O         25.08298        33.01429        -1.04793
H         25.46204        33.81254        -1.50196
O         18.90958        47.08232         2.20202
H         18.54951        47.99639         2.24283
O         19.86852        16.19918         2.60957
H         19.46049        15.33775         2.85762
O         18.27724        11.09493         0.80835
H         18.17540        11.81803         1.46315
O         34.45566        39.13294         1.81449
H         33.56580        39.20692         2.23825
O         32.53404        20.72990         2.81306
H         32.23693        19.83836         3.10919
O         15.01464        42.28481        -2.28401
H         14.99416        41.35600        -2.59836
O         11.29658        32.18468        -1.62417
H         11.60005        32.90793        -2.24972
O         22.05937        38.06062         2.79530
H         21.23512        38.43062         3.17779
O         14.55918        33.10354        -1.77913
H         13.79751        33.59616        -2.23163
O         16.91109        20.70024         2.56214
H         16.01701        20.95177         2.89218
O         17.34833        22.43333        -0.63409
H         17.59545        23.36215        -0.85791
O         14.39650        20.36068         2.51838
H         13.63753        20.83138         2.92525
O         23.88867        30.62864        -0.61123
H         24.15410        31.42983        -1.12812
O         15.25714        46.16885         1.39038
H         15.21949        47.13504         1.55817
O         27.10619        24.97248         3.52001
H         26.27679        25.34061         3.91342
O         16.30047        39.45845         2.29735
H         16.20768        40.39873         2.58501
O         15.82241        26.68007        -0.75260
H         16.58885        27.08731        -1.21226
O         25.04745         6.75013        -4.83813
H         25.55234         7.39639        -5.37312
O         25.45468         5.48469        -1.45457
H         25.01802         6.01556        -0.74526
H          4.90454        31.13594         0.06859
H          4.92025        33.57853        -0.20734
H          7.36985        26.83576         0.64631
H          6.14565        28.94179         0.38498
H          6.24794        35.73714        -0.43300
H          7.47065        37.79662        -0.69472
H          9.86798        22.57801         0.57848
H          8.59116        24.69964         0.69196
H          8.73075        39.94911        -1.00761
H          9.96939        42.06501        -1.25293
H         12.33916        18.31779         0.02177
H         11.13265        20.52663         0.07669
H         11.15931        44.18651        -1.25359
H         12.52748        46.32780        -1.58170
H         14.73905        14.14110        -0.30816
H         13.52835        16.13943         0.36439
H         13.80716        48.48570        -1.67869
H         15.06430        50.58571        -1.76723
H         17.39305         9.76290        -1.15768
H         16.00132        11.99451        -0.83656
H         16.25000        52.70212        -1.80864
H         17.41420        54.82010        -1.94459
H         19.94633         5.83713        -2.52139
H         18.64219         7.85045        -1.94360
H         18.58568        56.95489        -2.11413
H         19.85261        59.09070        -2.61050
H         23.31987         2.83039        -4.02475
H         21.18837         3.90456        -3.35579
H         23.32548        62.32536        -3.31234
H         21.14639        61.18259        -2.99455
H         25.48774         3.93203        -3.71287
H         26.65710         6.27790        -3.57415
H         26.70630        59.02354        -2.49630
H         25.47136        61.11143        -3.06278
H         27.77406         8.40901        -3.44159
H         29.00149        10.48984        -2.92904
H         29.10739        54.87572        -1.43458
H         27.91198        56.84783        -2.09480
H         30.25642        12.61276        -2.62491
H         31.50509        14.64714        -1.94442
H         31.48588        50.48770        -1.01675
H         30.36787        52.81473        -1.04164
H         32.77897        16.55027        -1.09365
H         34.01099        18.53263        -0.46358
H         33.99543        46.42957        -0.58036
H         32.72501        48.57429        -0.53919
H         35.29051        20.51306         0.01215
H         36.58301        22.49857         0.48134
H         36.54990        42.21138        -0.10210
H         35.27784        44.34304        -0.39198
H         37.85666        24.66732         0.62474
H         38.37250        27.10397        -0.75758
H         38.96002        37.91325        -0.16916
H         37.79481        39.96425        -0.21865
H         40.39155        29.13462         0.08030
H         41.53339        31.22737        -0.59678
H         41.46668        33.69361        -0.61345
H         40.23374        35.79289        -0.36640
