         634
 CSIRO Nanostructure Databank - Neutral Graphene Oxide Data Set
C         22.95120        69.71232         0.16061
C         22.99160        71.05190         0.61465
C         21.85284        71.64564         1.23502
C         23.16545        73.58157         1.88807
C         21.94753        72.88625         1.84875
C         25.38739        65.49145        -0.64421
C         25.37482        66.96465        -0.96501
C         24.11538        67.64965        -0.50445
C         25.35260        69.77494        -0.56386
C         24.10821        69.01009        -0.28707
C         25.37201        71.29881        -0.12162
C         24.20945        71.80366         0.58909
C         25.57240        73.74946         1.28248
C         24.31307        73.04566         1.26974
C         27.83265        61.27925        -0.22993
C         27.83084        62.67645        -0.35682
C         26.62040        63.39635        -0.39322
C         27.86415        65.53874        -0.66039
C         26.58769        64.81233        -0.51932
C         27.87790        66.91602        -0.72629
C         26.61047        67.63057        -0.31736
C         27.84474        69.83343        -0.58353
C         26.63344        69.11265        -0.57119
C         27.83854        71.25240        -0.29702
C         26.68421        71.91012         0.09554
C         27.99741        73.89332         0.81103
C         26.72226        73.21211         0.73723
C         30.29905        57.01164         0.24907
C         30.21392        58.43964         0.71592
C         29.01521        59.17983         0.20635
C         30.29833        61.27795         0.00069
C         29.04078        60.54322        -0.03312
C         30.32828        62.65232        -0.26371
C         29.09639        63.39567        -0.47121
C         30.34271        65.50347        -0.95881
C         29.08655        64.76644        -0.70947
C         30.38532        66.97258        -0.86368
C         29.09540        67.70385        -1.16745
C         30.33649        69.84341        -0.58333
C         29.09470        69.15402        -0.73688
C         30.36269        71.18951        -0.25205
C         29.12209        72.02264        -0.43615
C         30.40849        74.03485         0.30954
C         29.13846        73.33292         0.31682
C         32.69121        52.75109        -0.35141
C         32.66677        54.15089        -0.12999
C         31.49881        54.90042        -0.08645
C         32.75561        56.99614         0.44261
C         31.49250        56.31131         0.22484
C         32.76540        58.44845         0.87057
C         31.50245        59.19815         0.51961
C         32.77331        61.33539         0.61340
C         31.51765        60.54780         0.29510
C         32.79181        62.72507         0.02667
C         31.59594        63.34928        -0.29376
C         32.85632        65.53771        -0.50535
C         31.64388        64.74583        -0.75172
C         32.83448        66.91870        -0.64190
C         31.59396        67.63438        -0.79257
C         32.90421        69.81509        -0.53280
C         31.62195        69.13706        -0.99534
C         32.89840        71.23417        -0.19170
C         31.60116        71.85476         0.29510
C         32.87541        74.13294         0.02494
C         31.57893        73.36850         0.16110
C         35.17753        48.54226        -0.72095
C         35.17732        49.91081        -0.70199
C         33.95126        50.64043        -0.53673
C         35.12597        52.80227        -0.87490
C         33.90019        52.02995        -0.53358
C         35.12274        54.26687        -0.58915
C         33.97766        54.80461         0.23735
C         35.21411        56.98899         0.21450
C         33.95954        56.31393         0.27655
C         35.23293        58.42806         0.31888
C         34.02916        59.16199         0.46628
C         35.26588        61.24231         0.24035
C         34.04423        60.56043         0.36454
C         35.33046        62.68851        -0.16795
C         34.03176        63.43401        -0.08078
C         35.31548        65.56447        -0.07883
C         34.07574        64.81547        -0.26866
C         35.32746        66.92976        -0.19664
C         34.14835        67.63765        -0.83683
C         35.38091        69.79773        -0.50989
C         34.08122        69.10844        -0.50912
C         35.36135        71.35449        -0.36961
C         34.06526        71.94617        -0.03220
C         35.35227        74.07388         0.46399
C         34.05416        73.32973         0.59603
C         37.78799        44.50708         0.57700
C         37.68502        45.75927        -0.08894
C         36.50571        46.47021        -0.10669
C         37.69579        48.46323        -0.97576
C         36.38920        47.69040        -0.98076
C         37.62532        49.91253        -1.30091
C         36.49167        50.66968        -0.64894
C         37.56989        52.85469        -1.30149
C         36.44066        52.13429        -1.04318
C         37.54493        54.38227        -1.37486
C         36.40747        54.98417        -0.56910
C         37.63029        57.14008        -0.57469
C         36.41722        56.30949        -0.20662
C         37.75198        58.34435         0.35631
C         36.46457        59.12671         0.30590
C         37.74368        61.22593         0.59693
C         36.47262        60.51821         0.31720
C         37.73215        62.71848         0.70450
C         36.49961        63.46302         0.39110
C         37.76628        65.56491         0.54609
C         36.51910        64.83194         0.33118
C         37.78092        66.95304         0.43558
C         36.47387        67.71259         0.41745
C         37.79041        69.83620         0.04397
C         36.60180        69.12272        -0.09985
C         37.80357        71.29251         0.01092
C         36.60449        72.01026         0.01512
C         37.81455        74.13520         0.32729
C         36.57576        73.43547         0.28707
C         40.34838        40.57487         2.09262
C         40.29242        41.82836         1.44254
C         39.06103        42.51832         1.27149
C         40.22442        44.40539         0.18790
C         38.99821        43.78153         0.65618
C         40.18995        45.69645        -0.38060
C         38.87834        46.27698        -0.87438
C         40.13328        48.50329        -1.31851
C         38.87097        47.79236        -1.00720
C         40.15103        49.97954        -1.38612
C         38.88232        50.67693        -1.62864
C         40.13112        52.89389        -1.40026
C         38.85389        52.20017        -1.81170
C         40.11430        54.27888        -1.16691
C         38.87966        55.01151        -1.00663
C         40.15171        57.07523        -0.54039
C         38.91242        56.34299        -0.63737
C         40.16947        58.46324        -0.29617
C         38.99096        59.16517         0.06514
C         40.24563        61.29052         0.39283
C         39.01620        60.53838         0.31735
C         40.23369        62.67178         0.69771
C         39.01828        63.43908         0.67720
C         40.21781        65.57890         1.17716
C         38.99497        64.82547         0.72460
C         40.21186        67.01578         0.74737
C         39.03471        67.68300         0.48000
C         40.22472        69.85411         0.35480
C         39.03051        69.14124         0.30946
C         40.23989        71.27897         0.25508
C         39.04971        72.00115         0.14361
C         40.26190        74.16726         0.31858
C         39.05344        73.45902         0.22100
C         42.98236        36.89768         4.10419
C         42.90697        38.10154         3.35967
C         41.65983        38.70788         3.05700
C         42.79526        40.51674         1.84171
C         41.58094        39.91694         2.33212
C         42.75101        41.75877         1.14721
C         41.50598        42.43991         0.97606
C         42.68039        44.37081        -0.04118
C         41.47031        43.73603         0.37439
C         42.63728        45.70213        -0.49773
C         41.40111        46.36213        -0.63906
C         42.63111        48.57111        -0.66946
C         41.41927        47.77093        -1.11006
C         42.58880        50.00633        -1.10694
C         41.37345        50.68409        -1.28668
C         42.57427        52.84932        -1.33072
C         41.38039        52.16203        -1.38595
C         42.59027        54.32701        -1.58876
C         41.35115        55.01561        -1.08962
C         42.64684        57.10842        -0.78997
C         41.38175        56.37805        -0.82371
C         42.67578        58.48338        -0.57432
C         41.39476        59.27686        -0.63580
C         42.70465        61.25001         0.14386
C         41.47771        60.60974         0.07424
C         42.79864        62.61629         0.68060
C         41.50016        63.37610         0.95031
C         42.72118        65.53846         0.82802
C         41.52866        64.86014         0.90596
C         42.75530        66.98493         0.80224
C         41.47627        67.77456         1.03509
C         42.76556        69.84143         0.64263
C         41.52141        69.08360         0.25514
C         42.70014        71.30668         0.95110
C         41.54052        71.97983         0.24563
C         42.79792        74.17120         0.68012
C         41.55694        73.51251         0.25296
C         45.54704        34.52661         5.46432
C         44.30759        35.09217         5.16390
C         45.43957        36.92019         3.97925
C         44.22370        36.29830         4.41679
C         45.38849        38.13047         3.23381
C         44.12035        38.72187         2.90973
C         45.24701        40.51423         1.62493
C         44.05144        39.91354         2.12436
C         45.19411        41.64980         0.81385
C         43.95836        42.32514         0.64314
C         45.14964        44.32856        -0.11271
C         43.94918        43.66698         0.09303
C         45.13397        45.76862        -0.40722
C         43.89293        46.34606        -1.05206
C         45.10548        48.53384        -1.06370
C         43.92530        47.85718        -0.98232
C         45.13433        50.01239        -0.81237
C         43.88783        50.71968        -1.35509
C         45.12623        52.86742        -1.30093
C         43.84902        52.17811        -0.88069
C         45.09938        54.28853        -1.31768
C         43.87365        55.00045        -1.19152
C         45.13093        57.08103        -0.86180
C         43.88525        56.38247        -0.94220
C         45.14636        58.49083        -0.65352
C         43.91916        59.19024        -0.49725
C         45.16294        61.30830        -0.23702
C         43.93828        60.59606        -0.23565
C         45.17980        62.73970         0.02445
C         44.02787        63.38351         0.43865
C         45.23998        65.58028         0.46646
C         44.04853        64.79974         0.95448
C         45.21498        66.98458         0.56044
C         43.94721        67.68042         0.69784
C         45.20378        69.86092         0.81198
C         43.95535        69.14486         0.72447
C         45.18834        71.29687         0.77519
C         44.01037        72.01685         0.75176
C         45.24381        74.15555         0.98503
C         44.00087        73.47510         0.77527
C         46.73349        35.12714         5.04364
C         47.89746        36.95708         3.84034
C         46.70508        36.33564         4.29549
C         47.86083        38.15792         3.11455
C         46.60109        38.75697         2.84586
C         47.81731        40.60651         1.56973
C         46.54311        40.03229         2.13277
C         47.74169        41.44623         0.30393
C         46.40830        42.21643         0.08316
C         47.69173        44.39338        -0.22208
C         46.46224        43.72915         0.36673
C         47.68325        45.72675        -0.62973
C         46.42142        46.48402        -0.62844
C         47.55886        48.53634        -1.44435
C         46.39536        47.86389        -1.15704
C         47.57123        49.99196        -1.56687
C         46.38550        50.71046        -1.31116
C         47.56522        52.81458        -1.75911
C         46.35182        52.13277        -1.43445
C         47.54353        54.32195        -1.92264
C         46.32477        55.00641        -1.36444
C         47.61089        57.10303        -1.05810
C         46.35138        56.38077        -1.10111
C         47.61753        58.50902        -0.84186
C         46.38599        59.20941        -0.64900
C         47.64207        61.33406        -0.49962
C         46.39187        60.61794        -0.46892
C         47.61198        62.77456        -0.38372
C         46.43661        63.46623        -0.10629
C         47.63529        65.65660         0.03022
C         46.43481        64.90908         0.10566
C         47.65750        67.03336         0.37108
C         46.42913        67.72103         0.54967
C         47.66766        69.81822         0.95995
C         46.43650        69.14614         0.77215
C         47.59320        71.25908         1.41639
C         46.51436        72.00523         0.63405
C         47.68786        74.10691         1.27309
C         46.46405        73.47164         1.01506
C         49.07313        38.72297         2.53593
C         50.28395        40.26024         0.93907
C         49.06567        39.82618         1.73793
C         50.21621        41.71233         0.49571
C         48.98395        42.31723         0.23679
C         50.13070        44.37726        -0.47111
C         48.92672        43.68677        -0.15711
C         50.07224        45.69846        -1.00063
C         48.86649        46.38235        -1.07689
C         50.08865        48.51738        -1.72609
C         48.79205        47.72811        -1.78927
C         50.06861        49.97479        -1.91653
C         48.79152        50.69297        -1.84137
C         49.98314        52.92400        -2.41259
C         48.76937        52.10902        -1.94211
C         50.08103        54.20152        -1.56283
C         48.80480        54.93507        -1.34052
C         50.06082        57.09352        -1.13984
C         48.82633        56.40149        -1.15705
C         50.06404        58.49913        -1.03912
C         48.85869        59.21895        -0.84776
C         50.14217        61.36491        -0.66799
C         48.86032        60.64807        -0.67502
C         50.14174        62.77900        -0.54800
C         48.87875        63.49598        -0.60002
C         50.15562        65.66384        -0.00367
C         48.89095        65.01400        -0.37937
C         50.11760        67.02215         0.38557
C         48.91034        67.73541         0.50131
C         50.12786        69.79570         1.19325
C         48.90104        69.13414         0.87510
C         50.11685        71.19142         1.78829
C         48.90961        71.99418         1.38389
C         50.17499        74.15133         1.67433
C         48.91053        73.37233         1.39643
C         51.41136        42.44166         0.28984
C         52.59842        44.50318        -0.44512
C         51.38895        43.73755        -0.23211
C         52.58059        45.74721        -1.01427
C         51.30272        46.29726        -1.62112
C         52.54393        48.45609        -2.01576
C         51.26153        47.81112        -1.68987
C         52.54265        49.95794        -2.19869
C         51.25464        50.67266        -2.07557
C         52.55717        52.84611        -1.85635
C         51.35283        52.14077        -2.46578
C         52.57110        54.24723        -1.62455
C         51.33273        54.98110        -1.50850
C         52.55175        57.06587        -1.04305
C         51.31696        56.35317        -1.26283
C         52.57151        58.46286        -0.92148
C         51.33908        59.24005        -1.34037
C         52.66507        61.38447        -1.01292
C         51.34213        60.66536        -0.86450
C         52.64515        62.78582        -0.46263
C         51.40842        63.59022        -0.75819
C         52.55069        65.47744         0.50505
C         51.38104        64.93197        -0.04610
C         52.42070        66.78751         1.27962
C         51.44605        67.71930         0.53098
C         52.56518        69.77397         1.38522
C         51.35153        69.11213         1.11959
C         52.61526        71.19856         1.47759
C         51.40963        71.93576         1.55845
C         52.67220        74.00831         1.42742
C         51.44342        73.34119         1.53486
C         53.80402        46.50172        -1.18665
C         55.07609        48.47726        -2.08562
C         53.80850        47.76901        -1.67769
C         55.02040        49.96556        -1.81771
C         53.80522        50.68204        -1.92296
C         55.01900        52.76596        -1.53325
C         53.79245        52.09786        -1.75377
C         55.08665        54.25767        -1.65569
C         53.78499        54.94153        -1.37455
C         54.99547        56.95619        -0.64765
C         53.79262        56.31335        -1.01315
C         54.92803        58.33401        -0.04285
C         53.76572        59.15464        -0.56266
C         55.02620        61.22099        -0.10736
C         53.82488        60.54872        -0.50650
C         55.03182        62.61914         0.09780
C         53.79193        63.38069         0.00631
C         55.00696        65.37635         0.82595
C         53.78374        64.76788         0.45932
C         55.03300        66.73586         1.38694
C         53.75183        67.49935         1.55307
C         55.09921        69.70854         1.34103
C         53.81259        69.00324         1.56177
C         55.09260        71.13313         1.26349
C         53.87201        71.87379         1.38823
C         55.14705        73.97631         1.21083
C         53.89289        73.29805         1.35079
C         56.20796        50.63343        -1.52937
C         57.45476        52.72702        -1.12446
C         56.23722        52.04627        -1.39766
C         57.48526        54.12434        -0.87327
C         56.27463        54.88056        -0.98113
C         57.45877        56.91113        -0.27677
C         56.23891        56.24197        -0.62968
C         57.46299        58.32601        -0.06768
C         56.24594        59.06343        -0.08380
C         57.48727        61.15888         0.23611
C         56.25749        60.46988         0.03547
C         57.49453        62.58304         0.36812
C         56.25233        63.30276         0.35962
C         57.49517        65.41945         0.67195
C         56.24725        64.69975         0.64631
C         57.52953        66.81946         0.79183
C         56.33772        67.52711         1.28200
C         57.51551        69.69566         0.89240
C         56.29794        69.00195         1.19287
C         57.50287        71.10905         0.78691
C         56.31501        71.82993         1.02447
C         57.59036        73.97154         0.83194
C         56.32544        73.27725         1.02985
C         58.67674        54.78467        -0.50102
C         59.90914        56.86605        -0.02325
C         58.69187        56.18007        -0.25715
C         59.94115        58.26951         0.12838
C         58.70475        59.00365         0.09968
C         59.95621        61.08017         0.43815
C         58.72485        60.41934         0.26812
C         59.98925        62.53943         0.78141
C         58.71510        63.28725         0.48997
C         59.96010        65.42881         0.42602
C         58.73212        64.70124         0.50875
C         59.99066        66.82946         0.49189
C         58.74777        67.55119         0.65844
C         60.02214        69.67219         0.76788
C         58.73780        68.95406         0.72829
C         60.01604        71.17650         0.64890
C         58.71123        71.83009         0.23909
C         59.96777        74.06056         0.04491
C         58.72784        73.31660         0.49531
C         61.16673        58.96863         0.27873
C         62.44372        61.08669         0.47491
C         61.19787        60.37167         0.40762
C         62.50322        62.48652         0.36007
C         61.21311        63.20487         0.19759
C         62.48806        65.40743         0.20964
C         61.20689        64.69995         0.12636
C         62.48187        66.81267         0.27967
C         61.24026        67.53962         0.39121
C         62.47511        69.67588         0.27380
C         61.27224        68.94896         0.47749
C         62.44930        71.10698         0.16470
C         61.27030        71.85361         0.27671
C         62.46579        73.97670         0.10313
C         61.26947        73.28649         0.14439
C         63.69279        63.22965         0.31790
C         64.92505        65.37974         0.29313
C         63.71028        64.66282         0.24916
C         64.94858        66.79452         0.27536
C         63.71803        67.52679         0.26537
C         64.96927        69.62026         0.08019
C         63.72647        68.95004         0.18935
C         64.99992        71.07151        -0.18849
C         63.68969        71.83211        -0.17122
C         64.94065        73.94159         0.16528
C         63.72670        73.29352         0.05200
C         66.17536        67.51777         0.26955
C         67.51704        69.62488         0.03435
C         66.18935        68.90423         0.16331
C         67.44527        71.11694         0.28057
C         66.23742        71.81766         0.10478
C         67.39446        73.92195         0.52572
C         66.19354        73.23166         0.23977
C         68.61453        71.82804         0.57810
C         68.58392        73.22398         0.69878
O         35.47458        70.69450        -1.66307
O         37.98044        50.11254        -2.69099
O         25.16466        70.86662        -1.49657
O         61.04751        63.83205        -1.09518
O         55.89218        66.91324         2.54833
O         53.73558        68.20453         2.83003
O         60.06906        70.57300         1.96562
O         34.81093        53.79464        -1.94279
O         42.28159        62.78527         2.06143
O         52.59453        49.05107        -3.37031
O         64.31959        71.42762        -1.44279
O         45.73199        46.51569         0.71673
O         41.81916        72.66840        -0.97833
O         40.93291        47.90690        -2.47738
O         31.09558        64.96251        -2.10110
O         48.83813        64.46661        -1.75400
O         47.29191        41.15891         2.79102
O         37.65679        61.86799         1.92969
O         49.40317        54.14283        -0.25192
O         49.68454        53.32637        -3.73864
O         59.77030        74.38262        -1.35161
H         59.65574        73.52762        -1.82417
O         51.39550        59.31327        -2.81246
H         52.04939        60.02861        -3.02912
O         43.97370        45.94976        -2.45432
H         43.23696        46.38430        -2.93531
O         46.90393        71.94493        -0.76695
H         46.20309        72.38479        -1.29229
O         46.51596        43.93795         1.79709
H         46.36519        44.89992         1.94646
O         31.55178        71.58781         1.73820
H         32.28624        72.11857         2.14214
O         34.39647        67.59161        -2.28580
H         33.62920        68.02711        -2.72144
O         36.08146        67.87605         1.83838
H         36.18379        67.00220         2.27411
O         29.03004        67.75487        -2.63989
H         29.87382        68.17016        -2.94107
O         48.64181        47.38675        -3.20578
H         49.43898        46.86252        -3.45911
O         50.08665        74.63602         3.03036
H         50.92369        75.09960         3.23976
O         52.01646        67.88526        -0.80320
H         51.35212        68.33809        -1.36398
O         47.48079        54.63344        -3.33546
H         48.27026        54.16523        -3.76047
O         37.27507        54.79915        -2.75299
H         36.38231        54.43458        -2.97220
O         40.09884        65.61907         2.64556
H         40.63562        66.38706         2.95813
O         52.88305        61.54413        -2.47279
H         52.37934        62.36076        -2.73274
O         51.27103        45.86900        -3.03036
H         52.04791        46.27186        -3.47603
O         37.38764        57.63236        -1.91801
H         37.32236        56.83748        -2.50229
O         41.43741        68.07946         2.46540
H         42.14528        68.73673         2.64841
O         26.48325        67.47918         1.13135
H         26.39795        66.51860         1.31743
O         46.13517        42.09626        -1.34142
H         45.30878        42.58611        -1.54501
O         51.84691        66.43617         2.55236
H         52.22809        67.05593         3.21863
O         41.66144        68.71310        -1.14950
H         41.68793        69.53814        -1.67868
O         36.23000        47.18617        -2.34872
H         37.01100        46.60580        -2.53708
O         43.78450        52.30081         0.56746
H         44.47161        51.71029         0.95990
O         58.67256        71.67853        -1.22673
H         57.79646        71.99793        -1.53206
O         49.97750        71.01318         3.25666
H         50.12646        71.89517         3.66349
O         42.54202        48.59415         0.79907
H         43.31802        49.11115         1.12107
O         31.63020        69.27781        -2.46981
H         31.56917        70.23552        -2.67914
O         29.17420        72.40687        -1.87261
H         28.30386        72.80125        -2.09845
O         32.72005        61.52585         2.06946
H         32.68142        60.62724         2.47238
O         33.12446        74.41859        -1.35924
H         33.24881        73.57038        -1.83380
O         25.46152        67.10667        -2.40963
H         26.35333        66.80215        -2.68660
O         37.90655        57.81285         1.70211
H         38.01803        58.57009         2.31503
O         38.71978        45.78480        -2.25189
H         39.41793        46.22874        -2.78689
O         50.38908        39.42329        -0.22659
H         49.55957        39.56703        -0.74419
O         51.44805        63.87454        -2.21456
H         50.54513        64.22415        -2.43983
O         42.53971        54.46990        -3.06464
H         41.64898        54.17339        -3.35446
O         32.80193        58.43733         2.36889
H         33.62578        57.97120         2.63261
O         47.86700        40.45101        -0.75180
H         47.43729        40.83301        -1.55381
O         51.77569        52.11410        -3.85228
H         51.02512        52.57795        -4.34228
O         42.36245        71.41287         2.39003
H         43.18470        71.24450         2.89852
O         60.18221        62.62629         2.23983
H         59.43629        62.15629         2.66905
O         35.63098        62.61153        -1.61647
H         35.51085        63.50952        -1.99513
O         44.25781        64.67407         2.40780
H         43.56224        64.04472         2.72627
O         41.22826        59.63737        -2.06072
H         41.10556        58.80357        -2.56368
O         45.13860        50.09945         0.65986
H         45.87597        49.53711         0.98329
O         47.19150        71.23345         2.81727
H         47.98375        70.93372         3.32621
O         33.78499        73.17864         2.03620
H         34.59062        72.80552         2.45316
O         55.25257        48.27187        -3.50090
H         54.44766        48.63929        -3.93863
O         38.82293        52.43773        -3.25327
H         38.23337        51.74766        -3.63910
O         55.32998        54.50460        -3.10916
H         55.26693        55.47343        -3.25378
O         36.87160        50.67978         0.76948
H         36.13247        51.07680         1.27764
O         34.28451        54.37508         1.60806
H         33.53948        54.65700         2.17981
O         30.02118        58.34289         2.18629
H         30.92106        58.24822         2.58333
O         44.07548        50.75042        -2.79626
H         43.31460        51.22073        -3.19885
O         54.64904        58.11260         1.39869
H         54.60372        58.99613         1.82300
O         68.50053        69.01599         0.87924
H         68.22199        69.13462         1.81006
H         23.22642        74.55680         2.39151
H         25.61807        74.72847         1.78221
H         28.03648        74.87723         1.30302
H         30.40346        75.13423         0.38805
H         32.79601        75.11648         0.55106
H         35.33267        75.15825         0.64804
H         37.80684        75.22743         0.45546
H         40.23175        75.23622         0.57877
H         42.78779        75.26140         0.83034
H         45.22911        75.24508         1.14451
H         47.70995        75.19433         1.44138
H         50.22934        75.04191         0.98006
H         52.68947        75.10864         1.39112
H         55.15978        75.07656         1.21422
H         57.59476        75.06875         0.92869
H         60.05620        75.03358         0.59112
H         62.46076        75.07709         0.11434
H         64.95783        75.03523         0.28878
H         67.37583        75.01685         0.62357
H         22.01131        69.15005         0.26740
H         20.90132        71.09505         1.24425
H         21.06077        73.32524         2.32734
H         24.44432        64.92496        -0.68352
H         23.19592        67.06045        -0.36602
H         26.87289        60.74245        -0.19141
H         25.66839        62.84839        -0.33276
H         29.35806        56.47052         0.06422
H         28.04948        58.65098         0.20318
H         31.74081        52.19550        -0.35893
H         30.53516        54.41536        -0.30393
H         34.21012        48.01609        -0.68880
H         33.02183        50.06759        -0.39637
H         36.88578        44.08961         1.04969
H         35.61533        46.07332         0.40501
H         39.41676        40.11881         2.45922
H         38.13549        42.05821         1.64872
H         42.05243        36.41937         4.44586
H         40.73493        38.23738         3.42197
H         45.58916        33.59287         6.04281
H         43.38271        34.60655         5.50675
H         47.70196        34.66851         5.28917
H         48.86586        36.47997         4.05296
H         50.00961        38.16160         2.67839
H         51.21135        40.09423         1.54502
H         52.37719        41.96218         0.50907
H         53.55344        44.07728        -0.09953
H         54.75619        46.01077        -0.92987
H         55.96049        48.02558        -1.57078
H         57.14403        50.06349        -1.43458
H         58.38471        52.14596        -1.04173
H         59.61630        54.21586        -0.44318
H         60.85134        56.29859        -0.00780
H         62.11016        58.40289         0.26803
H         63.37854        60.50857         0.52919
H         64.65613        62.70249         0.39257
H         65.87668        64.82887         0.33025
H         67.12840        66.97027         0.30683
H         67.88102        69.47591        -1.02125
H         69.55930        71.28030         0.70094
H         69.51049        73.76982         0.92533
