         600
 CSIRO Nanostructure Databank - Neutral Graphene Oxide Data Set
C         23.82865        27.78796         3.48797
C         23.72401        29.12011         3.12812
C         23.42869        31.88787         2.23535
C         23.35095        33.24390         1.95249
C         23.24201        36.13279         1.48314
C         23.21132        37.51308         1.31621
C         23.08788        40.40811         0.73354
C         23.07801        41.77840         0.57655
C         23.05740        44.70514         0.20187
C         23.06566        46.06506        -0.00546
C         26.01839        24.82477         2.82355
C         24.98887        25.59788         3.30070
C         25.79350        27.57463         2.06038
C         24.86239        26.98648         2.95230
C         25.76019        28.96043         1.77974
C         24.68016        29.73320         2.28309
C         25.68439        31.79148         1.30638
C         24.58591        31.14179         1.93961
C         25.63079        33.20472         1.08643
C         24.44665        33.93798         1.40157
C         25.53552        36.03869         0.65910
C         24.39585        35.37103         1.17198
C         25.51494        37.47518         0.50602
C         24.32746        38.22087         0.84156
C         25.48583        40.37125         0.36971
C         24.29788        39.66719         0.64596
C         25.49894        41.78727         0.25433
C         24.27242        42.51083         0.34414
C         25.49240        44.63319        -0.02738
C         24.26404        43.94651         0.17602
C         25.50744        46.04686        -0.26785
C         24.28070        46.75927        -0.27345
C         25.44368        48.79307        -0.93463
C         24.28199        48.15188        -0.57091
C         28.16332        23.19268         1.66706
C         28.09121        24.60350         1.44193
C         26.97862        25.34189         1.90132
C         27.94252        27.39098         0.65656
C         26.78443        26.70930         1.41446
C         27.94555        28.86326         0.61846
C         26.85726        29.59865         1.05776
C         27.97235        31.72087         0.38511
C         26.84195        31.04840         0.90399
C         27.97012        33.15802         0.26810
C         26.77979        33.88432         0.57935
C         27.88830        35.95645        -0.11167
C         26.73952        35.29883         0.38581
C         27.78986        37.37716        -0.46863
C         26.63924        38.15049         0.01450
C         27.85411        40.34826        -0.45094
C         26.78798        39.61503         0.32972
C         27.97245        41.79171        -0.16535
C         26.74363        42.51114         0.08178
C         27.98588        44.66508        -0.06020
C         26.72342        43.91013        -0.00749
C         27.98517        46.06414        -0.51552
C         26.72911        46.73875        -0.58285
C         27.89780        48.73112        -1.46171
C         26.68824        48.10020        -0.98073
C         27.82495        49.98199        -2.11889
C         30.47691        23.12136         0.89530
C         29.28904        22.47741         1.37293
C         30.43743        24.51910         0.62250
C         29.22580        25.26223         0.82502
C         30.38646        27.33091         0.10861
C         29.20195        26.64596         0.53784
C         30.36483        28.75840        -0.11179
C         29.04911        29.49776        -0.19038
C         30.33529        31.65359        -0.29480
C         29.15471        30.99053         0.01852
C         30.36301        33.10680        -0.40922
C         29.13044        33.84156        -0.17676
C         30.29510        35.97338        -0.73042
C         29.09475        35.25676        -0.37343
C         30.33141        37.36296        -0.81736
C         29.05928        38.09654        -0.89436
C         30.37428        40.28442        -0.86325
C         29.07561        39.59603        -0.90955
C         30.38694        41.68795        -0.73514
C         29.18142        42.42478        -0.41713
C         30.46520        44.58781        -0.73269
C         29.28057        43.87926        -0.22914
C         30.44236        45.98083        -0.94879
C         29.18743        46.70333        -0.88238
C         30.35277        48.66245        -1.88011
C         29.15343        48.04976        -1.37816
C         30.16350        49.81687        -2.66355
C         28.93688        50.48951        -2.76665
C         32.94431        20.29956         0.93177
C         31.76184        20.98441         1.00145
C         32.88467        23.07120         0.34634
C         31.69253        22.38929         0.74359
C         32.81767        24.43749        -0.02147
C         31.61188        25.18565         0.12892
C         32.68541        27.29950        -0.86884
C         31.57076        26.59188        -0.11863
C         32.79229        28.75781        -0.50311
C         31.56054        29.46563        -0.33808
C         32.77155        31.57748        -0.66965
C         31.56617        30.90706        -0.46350
C         32.77607        33.01057        -1.13597
C         31.51874        33.76063        -0.78559
C         32.81557        35.93482        -0.83682
C         31.52216        35.21799        -1.16195
C         32.80830        37.36002        -0.81144
C         31.57701        38.09038        -0.87327
C         32.83256        40.22808        -0.80589
C         31.58513        39.52275        -0.86679
C         32.84697        41.65819        -0.81637
C         31.63251        42.39470        -0.79940
C         32.88627        44.52540        -1.01296
C         31.65418        43.82756        -0.87138
C         32.89165        45.94276        -1.19061
C         31.66227        46.67160        -1.27614
C         32.92241        48.76144        -1.68808
C         31.66802        48.05114        -1.65707
C         33.05051        50.20250        -1.90718
C         32.12859        50.95949        -2.65479
C         33.15990        53.05118        -2.05754
C         32.15546        52.35799        -2.71963
C         35.49977        18.83904         0.86082
C         35.41984        20.27837         0.71216
C         34.17815        20.96933         0.64415
C         35.36392        23.06079         0.07816
C         34.14161        22.36342         0.34274
C         35.34603        24.44561        -0.25618
C         34.04856        25.08979        -0.51196
C         35.29020        27.31013        -0.72116
C         34.02389        26.56062        -0.86100
C         35.26945        28.72649        -0.66444
C         34.00992        29.44092        -0.58882
C         35.23374        31.60347        -0.55715
C         34.01235        30.87869        -0.60784
C         35.19573        33.04804        -0.51061
C         34.02715        33.76597        -0.72820
C         35.26482        35.93146        -0.56647
C         34.01598        35.21094        -0.69973
C         35.27613        37.35772        -0.61734
C         34.04936        38.07364        -0.72167
C         35.30030        40.20535        -0.66008
C         34.05687        39.50003        -0.73926
C         35.29106        41.62692        -0.63869
C         34.09558        42.36202        -0.76748
C         35.31892        44.52552        -0.92041
C         34.10817        43.80304        -0.89027
C         35.35221        45.92691        -1.08996
C         34.12976        46.64631        -1.23784
C         35.36846        48.77484        -1.12614
C         34.13011        48.07143        -1.35444
C         35.37929        50.19900        -1.06207
C         34.19769        50.91774        -1.43249
C         35.37565        53.05144        -0.93271
C         34.22031        52.34591        -1.45086
C         35.36546        54.45556        -0.74072
C         37.91550        19.00524         1.40884
C         36.67471        18.20827         1.09413
C         37.88840        20.33525         0.69655
C         36.64458        20.99547         0.53026
C         37.82586        23.05427        -0.17093
C         36.60878        22.37406         0.14666
C         37.79683        24.47453        -0.45329
C         36.53859        25.16496        -0.47365
C         37.74936        27.32464        -0.66896
C         36.51642        26.60061        -0.64913
C         37.73886        28.75456        -0.70608
C         36.49094        29.45542        -0.65057
C         37.71750        31.57592        -0.52470
C         36.47782        30.88769        -0.55066
C         37.74622        33.00989        -0.20808
C         36.42977        33.78039        -0.17567
C         37.73191        35.91105        -0.34664
C         36.48169        35.23377        -0.37707
C         37.75083        37.33752        -0.44564
C         36.52380        38.06290        -0.54320
C         37.79314        40.19383        -0.56209
C         36.53493        39.48690        -0.58152
C         37.82590        41.59771        -0.59849
C         36.56353        42.33603        -0.46900
C         37.83721        44.46692        -1.14844
C         36.57850        43.82715        -0.62700
C         37.83344        45.95002        -0.89373
C         36.61153        46.63740        -0.98502
C         37.81239        48.77100        -0.69003
C         36.58965        48.06810        -0.92328
C         37.80236        50.19439        -0.57805
C         36.58022        50.90346        -0.75900
C         37.76259        53.03947        -0.30721
C         36.56764        52.33479        -0.65460
C         37.73101        54.45358        -0.14066
C         36.49839        55.12999        -0.33322
C         40.50021        16.22284         1.66507
C         39.29831        16.92019         1.70888
C         40.36604        18.87960         0.72239
C         39.20751        18.24002         1.23914
C         40.33124        20.27061         0.33246
C         39.08901        20.98309         0.32655
C         40.28607        22.97699        -0.56041
C         39.03985        22.33849        -0.12848
C         40.26201        24.49417        -0.82417
C         38.99062        25.20094        -0.63638
C         40.23403        27.34025        -0.73823
C         38.99304        26.62385        -0.67299
C         40.22113        28.76137        -0.79401
C         38.96789        29.46927        -0.77894
C         40.16362        31.65289        -0.80262
C         38.94082        30.90078        -0.73393
C         40.19343        33.03022        -0.59731
C         38.99083        33.76830        -0.38190
C         40.23159        35.89709        -0.35797
C         38.97418        35.17496        -0.32382
C         40.22980        37.32522        -0.35971
C         38.99932        38.04610        -0.42603
C         40.26730        40.17636        -0.40924
C         39.02396        39.46436        -0.47930
C         40.28625        41.60938        -0.48561
C         39.06000        42.32673        -0.60235
C         40.28665        44.46306        -0.60932
C         39.07749        43.74539        -0.70389
C         40.29014        45.91812        -0.59344
C         39.06274        46.63513        -0.69093
C         40.26354        48.77170        -0.34354
C         39.04652        48.06423        -0.56566
C         40.24946        50.19571        -0.21219
C         39.01705        50.90187        -0.31718
C         40.20193        53.02810         0.09265
C         38.99577        52.32417        -0.16591
C         40.17039        54.44952         0.27587
C         38.94283        55.16235         0.19206
C         40.11125        57.24740         0.69067
C         38.94651        56.56996         0.41671
C         42.92572        16.15255         1.14620
C         41.66229        16.83070         1.12894
C         42.77114        18.77178        -0.04660
C         41.58192        18.15672         0.64235
C         42.78268        20.26357         0.09384
C         41.57356        20.95646         0.09290
C         42.76769        23.08813        -0.41033
C         41.57109        22.36553        -0.22318
C         42.74585        24.51929        -0.64760
C         41.52756        25.22572        -0.71470
C         42.72076        27.37269        -0.79054
C         41.49399        26.64939        -0.73441
C         42.69698        28.80150        -0.89835
C         41.45575        29.46753        -0.88562
C         42.69931        31.67206        -1.31726
C         41.41059        30.91956        -1.12969
C         42.65828        33.20475        -1.26265
C         41.52353        33.70350        -0.35093
C         42.68655        35.91124        -0.36051
C         41.45634        35.20961        -0.40078
C         42.68254        37.30413        -0.18854
C         41.46552        38.02973        -0.25465
C         42.73577        40.17513        -0.19099
C         41.48112        39.46393        -0.26315
C         42.76109        41.60103        -0.32359
C         41.51864        42.32704        -0.47412
C         42.76300        44.49744        -0.59346
C         41.50464        43.74069        -0.52861
C         42.74821        45.94428        -0.32248
C         41.51136        46.63334        -0.38557
C         42.72330        48.76835        -0.06603
C         41.50052        48.06359        -0.25528
C         42.71355        50.20018         0.05820
C         41.47261        50.90432         0.00406
C         42.66389        53.03334         0.38098
C         41.44752        52.32465         0.16094
C         42.63534        54.45680         0.57221
C         41.38717        55.15281         0.53565
C         42.56975        57.25481         0.98950
C         41.35681        56.56074         0.74119
C         44.09660        16.80956         0.78323
C         45.29792        18.83220        -0.05231
C         44.08897        18.12538         0.29280
C         45.29309        20.24139        -0.17983
C         44.07077        21.01212         0.24574
C         45.23062        23.11126        -0.48310
C         44.02422        22.42400        -0.28444
C         45.22277        24.54115        -0.64997
C         43.98012        25.24364        -0.68484
C         45.19959        27.38847        -0.81761
C         43.96468        26.66687        -0.77771
C         45.18884        28.81887        -0.88308
C         43.94770        29.53658        -0.96616
C         45.18662        31.67204        -0.98862
C         43.96394        30.94380        -1.07479
C         45.18905        33.11016        -0.91531
C         43.96411        33.84038        -0.83010
C         45.19250        35.91624        -0.36342
C         43.95367        35.19033        -0.48930
C         45.20210        37.29713        -0.07461
C         43.92432        37.99998         0.29222
C         45.17424        40.16305         0.08578
C         43.94382        39.47391        -0.00960
C         45.19511        41.58577         0.03661
C         43.99002        42.28345        -0.20867
C         45.24380        44.46799         0.06394
C         44.05692        43.73916        -0.41571
C         45.19918        45.90886         0.11930
C         43.96764        46.62750        -0.08784
C         45.19138        48.76871         0.16275
C         43.95901        48.05741         0.01965
C         45.19004        50.21539         0.25946
C         43.93518        50.91385         0.23950
C         45.12642        53.05469         0.61139
C         43.90565        52.33294         0.41308
C         45.10360        54.47293         0.77842
C         43.83771        55.17848         0.78851
C         43.77222        56.58182         1.00595
C         47.68170        18.81774        -0.56740
C         46.52437        18.13773        -0.26621
C         47.70689        20.23673        -0.65393
C         46.48719        20.95224        -0.45700
C         47.69235        23.09969        -0.70777
C         46.48191        22.39385        -0.53214
C         47.69450        24.53787        -0.74735
C         46.44904        25.25145        -0.72669
C         47.67573        27.39703        -0.80335
C         46.43823        26.68147        -0.78987
C         47.66513        28.81807        -0.83990
C         46.42066        29.53020        -0.88463
C         47.65541        31.67807        -0.89949
C         46.41859        30.95909        -0.90837
C         47.64277        33.08598        -0.95000
C         46.42367        33.81403        -0.85685
C         47.63439        35.96876        -0.52502
C         46.42602        35.24145        -0.62485
C         47.65533        37.33429        -0.16274
C         46.41409        38.01699         0.00628
C         47.63125        40.15275         0.30590
C         46.41285        39.44664         0.17117
C         47.63588        41.58784         0.41985
C         46.42744        42.29750         0.24651
C         47.60844        44.42681         0.80207
C         46.39227        43.73408         0.34880
C         47.61198        45.93372         0.76880
C         46.38734        46.64213         0.35020
C         47.71987        48.76981         0.13507
C         46.40118        48.04908         0.27600
C         47.66538        50.22715         0.52458
C         46.40115        50.92470         0.43976
C         47.57935        53.08377         0.76908
C         46.37435        52.35631         0.61901
C         47.53678        54.47778         0.87866
C         46.32579        55.16138         0.89889
C         50.16590        20.28348        -1.07196
C         48.93166        20.96060        -0.86809
C         50.16364        23.10059        -0.94618
C         48.93140        22.38369        -0.84278
C         50.16696        24.53336        -0.88311
C         48.92091        25.24471        -0.80662
C         50.14691        27.38812        -0.73765
C         48.92180        26.68148        -0.78487
C         50.13354        28.82120        -0.72542
C         48.90233        29.53593        -0.82190
C         50.14609        31.66070        -0.84315
C         48.90981        30.96258        -0.85977
C         50.18109        33.10461        -0.91358
C         48.91083        33.80906        -1.12216
C         50.16116        35.98176        -0.54062
C         48.90161        35.32648        -0.88759
C         50.16038        37.35055        -0.11018
C         48.89693        38.04423         0.04202
C         50.08705        40.12588         0.73013
C         48.85940        39.41652         0.34438
C         50.11456        41.59837         0.71803
C         48.89020        42.30512         0.61792
C         50.10990        44.43105         0.89567
C         48.89675        43.71349         0.75238
C         50.11868        45.89724         0.96623
C         48.91229        46.63562         0.77205
C         50.10765        48.74295         0.98042
C         48.92188        48.02879         0.67652
C         50.07670        50.17915         1.07927
C         48.84449        50.89338         0.80268
C         49.94531        52.96796         1.64062
C         48.92060        52.39731         0.69440
C         51.34990        20.97317        -1.18359
C         52.63857        23.10741        -1.10313
C         51.39128        22.39171        -1.08950
C         52.64152        24.52525        -0.96079
C         51.39861        25.23732        -0.88957
C         52.62865        27.35691        -0.68077
C         51.40824        26.67131        -0.76904
C         52.60782        28.80243        -0.25279
C         51.35984        29.54479        -0.66460
C         52.65600        31.69452        -0.97283
C         51.36670        30.93268        -0.76304
C         52.60952        33.08349        -0.35669
C         51.36275        33.83434        -0.78170
C         52.61832        36.01638        -0.71661
C         51.35283        35.26109        -0.67369
C         52.63366        37.40299        -0.24293
C         51.39300        38.01450         0.08356
C         52.64848        40.17410         0.48473
C         51.41388        39.38557         0.60678
C         52.62177        41.56900         0.73172
C         51.34442        42.28904         0.83977
C         52.60355        44.44324         0.94009
C         51.32414        43.70566         0.90892
C         52.62615        45.92770         1.12975
C         51.31670        46.61533         1.16190
C         52.49017        48.72872         1.69881
C         51.30463        48.02845         1.26523
C         52.39714        50.13311         1.94123
C         51.18421        50.85130         1.61979
C         51.03141        52.24981         1.99060
C         55.07993        23.11647        -1.16129
C         53.88643        22.43493        -1.22181
C         55.12012        24.52517        -0.96102
C         53.88477        25.22692        -0.87781
C         55.10961        27.33797        -0.57802
C         53.88170        26.65761        -0.71516
C         55.17418        28.83378        -0.70043
C         53.87409        29.55752        -0.53790
C         55.08996        31.67467        -0.27713
C         53.89502        30.93987        -0.54589
C         55.11551        33.10756        -0.30828
C         53.92530        33.80409        -0.54314
C         55.16747        35.98588        -0.34681
C         53.95358        35.25250        -0.71113
C         55.12006        37.38967        -0.19306
C         53.86434        38.08911        -0.09659
C         55.09402        40.21675         0.27921
C         53.86369        39.49950         0.21845
C         55.08816        41.60939         0.58504
C         53.85254        42.26244         0.79161
C         55.12102        44.45559         1.31641
C         53.84834        43.67590         1.22216
C         55.07679        45.94090         1.52686
C         53.85656        46.60478         1.64046
C         54.65993        48.70799         2.76954
C         53.68972        48.00821         2.02325
C         54.59148        50.09414         2.98555
C         53.49659        50.80682         2.53172
C         57.63107        24.58072        -0.94228
C         56.37117        25.23087        -0.82513
C         57.58824        27.33637        -0.37401
C         56.35274        26.63871        -0.57757
C         57.59060        28.73160         0.12605
C         56.27998        29.46495         0.12719
C         57.60164        31.69198         0.29391
C         56.26615        30.95494         0.22184
C         57.60414        33.13928        -0.02514
C         56.37917        33.82832        -0.18402
C         57.61594        35.97844        -0.09996
C         56.38331        35.25931        -0.20854
C         57.59631        37.40938        -0.04836
C         56.35278        38.10708        -0.03161
C         57.55528        40.25394         0.15383
C         56.33370        39.52069         0.12496
C         57.51614        41.68416         0.25733
C         56.33184        42.35494         0.57085
C         57.52947        44.51368         0.68606
C         56.36161        43.78511         0.84943
C         57.49532        46.03113         0.77355
C         56.38909        46.55329         1.66780
C         57.90995        48.31720         2.52674
C         56.65494        47.62470         2.48743
C         58.81470        25.27820        -0.81632
C         60.04377        27.39525        -0.30295
C         58.81254        26.66690        -0.50543
C         60.06098        28.73600        -0.03063
C         58.85570        29.50576         0.13433
C         60.05782        31.68728         0.08089
C         58.85602        30.90867         0.18178
C         60.05269        33.05807         0.02423
C         58.84158        33.83337        -0.03706
C         60.06083        36.02799        -0.02912
C         58.85094        35.26723        -0.07155
C         60.04811        37.39892         0.02969
C         58.82449        38.14153         0.04673
C         60.00946        40.34072         0.36062
C         58.80124        39.56191         0.13885
C         60.00228        41.69053         0.31829
C         58.76729        42.43339        -0.13102
C         59.90115        44.64886         0.08943
C         58.74944        43.89731         0.23961
C         59.97656        45.98841         0.56255
C         58.85955        46.62448         1.06623
C         58.97526        47.84247         1.80766
O         47.41108        45.20195         2.04260
O         28.06872        40.09380        -1.86352
O         28.14957        37.56750        -1.90592
O         50.74715        39.54024         1.90971
O         28.85875        44.37893         1.08830
O         37.06571        33.32557         1.06802
O         43.60632        44.14677        -1.76098
O         40.23791        23.52561        -1.92391
O         41.95745        31.20225        -2.49777
O         31.19869        50.30222        -3.47179
O         52.81387        45.32428        -0.22399
O         34.02221        25.55793        -1.93350
O         26.80580        26.80085        -0.05266
O         54.49172        43.83446         2.52808
O         56.70376        28.81396         1.33283
O         53.34949        35.76469        -1.96197
O         55.69222        48.02765         3.43558
O         48.89954        34.75188        -2.23985
O         36.62131        43.26683         0.71149
O         56.78882        31.43736         1.49546
O         58.79508        42.41353        -1.60634
H         58.78678        41.47201        -1.88265
O         52.78905        31.89156        -2.40636
H         52.80749        31.01409        -2.84094
O         49.42658        52.66748        -0.66425
H         50.26833        52.17303        -0.76218
O         37.84418        19.31413         2.85390
H         37.01212        19.81388         2.99733
O         42.41017        33.70159        -2.59382
H         42.05630        32.94473        -3.12038
O         37.76558        44.29051        -2.60863
H         38.55776        44.71621        -2.99991
O         31.45573        35.24711        -2.65720
H         30.51927        35.09569        -2.91153
O         57.15327        46.47878        -0.58593
H         57.83182        46.11150        -1.19216
O         52.54274        28.75023         1.22374
H         51.72418        28.26572         1.46338
O         43.84905        37.91033         1.77166
H         43.04152        38.39242         2.05111
O         44.23134        21.18714         1.71795
H         45.06389        21.68891         1.85574
O         41.90925        33.32102         1.00547
H         41.24161        33.68462         1.62466
O         47.95414        48.79546        -1.32773
H         47.26956        49.37591        -1.72427
O         55.61031        29.09549        -2.09214
H         55.00324        28.61329        -2.69284
O         27.32766        39.63369         1.71106
H         26.61517        39.32518         2.31119
O         32.83293        32.92295        -2.60357
H         32.49865        33.78919        -2.95223
O         32.22899        27.32902        -2.25900
H         32.56383        26.49971        -2.67598
O         52.47076        32.87982         1.08289
H         52.51891        33.74945         1.53151
O         42.58614        18.51110        -1.50737
H         42.41489        17.55009        -1.60716
O         28.61661        29.33674        -1.59594
H         27.68760        29.64543        -1.65693
H         23.09915        27.34128         4.17831
H         22.89987        29.71392         3.54483
H         22.55522        31.39750         2.68455
H         22.41926        33.77304         2.19032
H         22.34294        35.63913         1.87366
H         22.29010        38.04984         1.58048
H         22.13737        39.88945         0.91674
H         22.11678        42.30480         0.64507
H         22.09694        44.20322         0.37903
H         22.12242        46.63015         0.00583
H         26.10655        23.78608         3.17069
H         24.25968        25.16711         4.00175
H         25.40021        49.86246        -1.17986
H         23.33232        48.70521        -0.53982
H         27.28317        22.66440         2.05714
H         26.86963        50.51466        -2.20332
H         29.28197        21.39368         1.54361
H         28.87096        51.39935        -3.37676
H         32.94778        19.22261         1.14566
H         30.85173        20.42845         1.26031
H         33.17195        54.14778        -2.10134
H         31.39491        52.88835        -3.30673
H         34.58961        18.23858         0.71954
H         34.44103        55.02635        -0.90119
H         36.70186        17.11125         1.16439
H         36.43695        56.21666        -0.18987
H         40.56141        15.20100         2.06659
H         38.41492        16.43716         2.14929
H         40.09289        58.33334         0.86224
H         38.00525        57.13376         0.37626
H         42.97206        15.12618         1.53673
H         42.54111        58.34066         1.15977
H         45.05516        16.29130         0.93267
H         44.69082        57.15233         1.19542
H         48.60215        18.24051        -0.72476
H         46.54734        17.04109        -0.20660
H         48.47053        55.05310         0.93763
H         46.34396        56.25474         0.99200
H         50.18920        19.18803        -1.13642
H         49.85835        54.01361         1.96849
H         52.27622        20.40294        -1.32993
H         51.79249        52.72114         2.62696
H         56.01475        22.54727        -1.24761
H         53.91389        21.34578        -1.35590
H         55.40049        50.59459         3.53316
H         53.46863        51.89116         2.69437
H         57.67527        23.50277        -1.14752
H         58.00912        49.19615         3.17706
H         59.77588        24.75475        -0.92162
H         60.99245        26.84821        -0.40399
H         61.03367        29.23735         0.06925
H         61.02850        31.17261         0.07189
H         61.02001        33.57679        -0.01276
H         61.02986        35.51107        -0.03428
H         61.00695        37.93359         0.06431
H         60.94074        39.81564         0.61655
H         60.92826        42.25067         0.51447
H         60.81678        44.17632        -0.29189
H         60.96184        46.47281         0.63596
H         59.95932        48.32950         1.87692
