         620
 CSIRO Nanostructure Databank - Neutral Graphene Oxide Data Set
C         24.03107        27.98681         4.14962
C         23.83983        29.24343         3.62413
C         23.48228        31.97224         2.58989
C         23.37710        33.28096         2.19293
C         23.19552        36.08934         1.32749
C         23.14370        37.43954         1.03811
C         23.04668        40.36214         0.49070
C         23.05104        41.74121         0.36309
C         23.06964        44.73447         0.35308
C         22.95320        45.99220        -0.09690
C         26.55595        25.22130         4.05288
C         25.41596        25.94354         4.38206
C         26.14853        27.76622         2.91778
C         25.19202        27.22174         3.82583
C         25.97112        29.09022         2.41442
C         24.80476        29.85292         2.76993
C         25.71241        31.84873         1.60309
C         24.66588        31.21388         2.33256
C         25.68662        33.23939         1.32764
C         24.48565        33.98459         1.62914
C         25.70355        36.15005         1.32823
C         24.41543        35.37650         1.38520
C         25.57056        37.54737         0.77271
C         24.31962        38.20333         0.74313
C         25.45875        40.31962         0.14760
C         24.25336        39.61693         0.44579
C         25.44521        41.74322         0.00112
C         24.25785        42.45702         0.17179
C         25.44593        44.56669        -0.51200
C         24.36859        43.96654         0.37108
C         25.35302        45.93757        -1.03614
C         24.05396        46.70251        -0.79661
C         25.34011        48.79733        -1.00863
C         24.17891        48.15871        -0.70077
C         28.98030        23.69107         3.34250
C         28.63986        24.91121         2.70927
C         27.48986        25.70723         3.11657
C         28.20443        27.53293         1.57288
C         27.27106        26.98348         2.50706
C         28.12196        28.89227         1.22538
C         26.98850        29.65194         1.60267
C         28.02301        31.73268         0.46646
C         26.80635        31.01785         1.08907
C         28.02732        33.19802         0.48616
C         26.84823        33.91332         0.80243
C         28.00106        36.04552         0.39357
C         26.86077        35.36641         0.73435
C         28.09290        37.55088         0.56051
C         26.75022        38.23832         0.42347
C         27.86619        40.24029        -0.50600
C         26.68662        39.58976         0.08588
C         27.84304        41.70069        -0.75366
C         26.76114        42.50296        -0.04349
C         27.80783        44.56050        -1.14253
C         26.64142        43.89907        -0.63611
C         27.83145        45.96892        -1.29585
C         26.60431        46.69861        -1.21577
C         27.82718        48.81859        -1.45453
C         26.58127        48.10182        -1.28250
C         27.85631        50.26504        -1.41317
C         30.68141        23.20600         1.68260
C         30.02754        22.89147         2.89045
C         30.21755        24.34098         0.99741
C         29.37305        25.30750         1.56004
C         30.39562        27.32361         0.14727
C         29.24932        26.66564         0.96153
C         30.35653        28.84083        -0.12029
C         29.41843        29.58355         0.84665
C         30.46319        31.70402         0.08493
C         29.30444        31.02895         0.42332
C         30.45486        33.14529        -0.03802
C         29.26749        33.85259         0.24220
C         30.49614        36.01629        -0.26491
C         29.27831        35.31870         0.26614
C         30.29710        37.36003        -0.91717
C         29.18995        38.18709        -0.29055
C         30.24520        40.16051        -1.42580
C         29.13177        39.49562        -0.63034
C         30.28991        41.67427        -1.26705
C         29.11454        42.37275        -1.09538
C         30.35280        44.55861        -1.59999
C         29.01641        43.79290        -1.43533
C         30.32266        46.00878        -1.43670
C         29.07420        46.68599        -1.44920
C         30.32660        48.82150        -1.70684
C         29.04142        48.11135        -1.53029
C         30.31227        50.34768        -1.63316
C         29.00652        50.98357        -1.41750
C         33.06304        20.35972         1.10809
C         31.93969        21.09128         1.42744
C         33.00808        23.15098         0.66531
C         31.87689        22.49105         1.20199
C         33.03170        24.57440         0.31221
C         31.84450        25.27882        -0.01202
C         32.94982        27.40905         0.01358
C         31.73326        26.67077         0.03075
C         32.93395        28.84487        -0.10323
C         31.70752        29.55512        -0.06466
C         32.92084        31.67610        -0.34100
C         31.70756        30.95960        -0.09245
C         32.89802        33.09129        -0.55510
C         31.67325        33.83178        -0.40885
C         32.84279        35.92327        -1.07729
C         31.67111        35.21735        -0.65660
C         32.79978        37.34735        -1.21016
C         31.60604        38.09937        -1.05260
C         32.79173        40.23965        -1.26345
C         31.58058        39.48834        -1.22005
C         32.78256        41.66919        -1.25171
C         31.54770        42.38841        -1.33464
C         32.78799        44.52225        -1.13685
C         31.58033        43.80318        -1.33927
C         32.78085        45.96032        -1.13248
C         31.56321        46.69283        -1.28949
C         32.80272        48.81419        -1.26533
C         31.59692        48.12078        -1.38230
C         32.86359        50.30533        -1.55971
C         31.56619        51.01937        -1.25019
C         32.77474        53.01046        -0.54195
C         31.57604        52.31713        -0.77541
C         35.48728        18.85388         0.50736
C         35.47322        20.27476         0.47203
C         34.25305        21.00674         0.68399
C         35.46794        23.12096         0.30422
C         34.24471        22.42722         0.53752
C         35.52618        24.61203         0.54761
C         34.22393        25.30722         0.27659
C         35.42880        27.42916        -0.13746
C         34.19499        26.70927         0.04415
C         35.40644        28.82383        -0.32245
C         34.16454        29.54570        -0.26103
C         35.36462        31.66228        -0.72146
C         34.14711        30.95984        -0.43608
C         35.31605        33.05159        -0.98916
C         34.09729        33.77171        -0.91537
C         35.30271        35.89611        -1.35748
C         34.08033        35.20084        -1.18318
C         35.32822        37.33998        -1.61033
C         34.00636        38.09682        -1.57784
C         35.25357        40.24693        -1.28671
C         34.04042        39.55398        -1.34078
C         35.24796        41.65698        -1.08789
C         34.01133        42.37432        -1.11631
C         35.23526        44.49422        -0.76803
C         34.01418        43.80044        -1.00218
C         35.21298        45.93765        -0.71463
C         34.00454        46.66966        -0.95734
C         35.25819        48.80339        -0.85305
C         34.02083        48.10135        -1.01412
C         35.29234        50.26807        -0.84997
C         34.07685        50.98640        -0.96992
C         35.26047        53.09121        -0.39822
C         34.03240        52.36858        -0.65419
C         35.25916        54.48606        -0.16529
C         37.88107        18.80165         0.08248
C         36.64375        18.13822         0.30307
C         37.88690        20.21858         0.05767
C         36.69197        20.96894         0.21498
C         37.87281        23.14538        -0.19969
C         36.68238        22.42140         0.13242
C         37.87881        24.56291        -0.37603
C         36.69632        25.30788        -0.10204
C         37.89043        27.41559        -0.54751
C         36.67433        26.70284        -0.25315
C         37.88456        28.82219        -0.65112
C         36.63494        29.53895        -0.56631
C         37.87286        31.65666        -0.85866
C         36.59776        30.92803        -0.75415
C         37.83465        33.11986        -1.13945
C         36.53070        33.74074        -1.56206
C         37.76564        35.93286        -1.29293
C         36.55334        35.22947        -1.33120
C         37.75211        37.37693        -1.21139
C         36.56968        38.07575        -1.37637
C         37.75313        40.24879        -0.93131
C         36.57526        39.57068        -1.59890
C         37.69278        41.59686        -0.63462
C         36.46899        42.34990        -0.81551
C         37.68214        44.44290        -0.29342
C         36.45074        43.75429        -0.62436
C         37.59382        45.88716        -0.01700
C         36.39628        46.65340        -0.43979
C         37.71744        48.76504        -0.45614
C         36.41643        48.06305        -0.53150
C         37.77685        50.26047        -0.59005
C         36.49734        50.98384        -0.62792
C         37.74083        53.12945        -0.28688
C         36.50720        52.39846        -0.43996
C         37.69216        54.53134        -0.10646
C         36.44336        55.18483        -0.02341
C         40.34514        15.93354        -0.01395
C         39.17388        16.66087         0.11719
C         40.28852        18.75476        -0.54014
C         39.11202        18.06394        -0.10672
C         40.33519        20.15099        -0.61093
C         39.17232        20.90819        -0.11989
C         40.26455        23.02170        -1.05900
C         39.14499        22.41987        -0.28606
C         40.24607        24.53183        -1.23051
C         39.06877        25.27374        -0.74805
C         40.34133        27.38114        -1.05246
C         39.10585        26.67791        -0.76772
C         40.35452        28.78027        -1.10916
C         39.12133        29.52510        -0.92933
C         40.30608        31.61490        -1.58284
C         39.11935        30.91076        -1.05086
C         40.27396        33.10332        -1.88020
C         39.05875        33.85848        -1.53117
C         40.29227        35.97324        -1.36591
C         39.03818        35.23452        -1.43087
C         40.22723        37.36416        -1.00389
C         38.99875        38.09307        -0.98891
C         40.18048        40.16983        -0.36165
C         38.97123        39.48616        -0.74042
C         40.17861        41.59783        -0.12822
C         38.84305        42.27014         0.08168
C         40.13086        44.48380         0.12870
C         38.87791        43.77391        -0.08430
C         40.15157        45.88683         0.23187
C         38.86935        46.60696         0.31781
C         40.15749        48.82998         0.29575
C         38.86622        48.10028         0.22952
C         40.20413        50.27583        -0.02973
C         39.02179        50.98143        -0.22702
C         40.22300        53.09266        -0.02529
C         39.01191        52.41761        -0.22158
C         40.24535        54.56552        -0.05779
C         38.94078        55.32865        -0.05084
C         40.13303        57.35719         0.76861
C         38.98432        56.69126         0.54978
C         42.77415        15.87422        -0.49651
C         41.54518        16.54622        -0.45312
C         42.82569        18.69648        -1.00852
C         41.48925        17.95631        -0.86168
C         42.80995        20.17417        -0.97746
C         41.54100        20.87738        -0.96525
C         42.71924        22.96747        -1.63052
C         41.52467        22.26232        -1.14735
C         42.71618        24.46853        -1.76960
C         41.51987        25.24829        -1.40204
C         42.82985        27.34837        -1.40005
C         41.56560        26.63213        -1.28815
C         42.83513        28.77888        -1.40846
C         41.59627        29.50102        -1.32988
C         42.80599        31.63082        -1.68684
C         41.59344        30.89690        -1.49857
C         42.79209        33.03223        -1.97361
C         41.54313        33.90762        -2.22180
C         42.71488        36.08701        -1.31889
C         41.53200        35.32685        -1.58105
C         42.65977        37.36638        -0.71262
C         41.42226        38.06230        -0.67359
C         42.63448        40.10330         0.05380
C         41.38007        39.43996        -0.32086
C         42.63373        41.60396         0.22679
C         41.35465        42.31762         0.05015
C         42.60711        44.46161         0.26492
C         41.37615        43.76342         0.15082
C         42.61656        45.89232         0.35292
C         41.38333        46.61512         0.31896
C         42.61571        48.74955         0.42289
C         41.40411        48.04270         0.34890
C         42.64209        50.19317         0.29479
C         41.46720        50.94230         0.09235
C         42.66107        53.08120         0.41213
C         41.47180        52.39041         0.12612
C         42.65348        54.48384         0.83796
C         41.40276        55.26887         0.56785
C         42.66162        57.34178         1.11476
C         41.47897        56.77598         0.37306
C         43.99270        16.55722        -0.64025
C         45.29006        18.69150        -0.57265
C         44.06575        17.95340        -0.74104
C         45.24018        20.16630        -0.54389
C         44.00182        20.86345        -0.93945
C         45.31854        23.04791        -1.28292
C         44.06430        22.25815        -1.40043
C         45.31555        24.44410        -1.48191
C         44.06020        25.19267        -1.72997
C         45.29780        27.33392        -1.53996
C         44.04818        26.64436        -1.47769
C         45.28336        28.75367        -1.65130
C         44.06892        29.48247        -1.58455
C         45.28277        31.65670        -1.74032
C         44.05971        30.92939        -1.68455
C         45.27892        33.04979        -1.89720
C         44.03088        33.60344        -2.24618
C         45.22702        36.03195        -1.14402
C         44.03463        35.67693        -1.74524
C         45.17045        37.24720        -0.25650
C         43.90427        38.05714        -0.43888
C         45.14047        40.21654        -0.48554
C         43.90597        39.40373        -0.20291
C         45.13018        41.64237         0.01868
C         43.91262        42.34489         0.12859
C         45.11223        44.47358         0.21124
C         43.87945        43.75642         0.22492
C         45.11396        45.90984         0.42661
C         43.84593        46.61297         0.51288
C         45.04352        48.76440         0.96040
C         43.82949        48.02148         0.59175
C         45.15011        50.19923         0.71155
C         43.93925        50.86686         0.23195
C         45.17676        53.08878         0.77148
C         43.95161        52.42882         0.29450
C         45.14396        54.50058         1.04160
C         43.91675        55.21482         1.03951
C         43.79836        56.61989         1.32956
C         47.74358        18.80439        -0.50937
C         46.53494        18.08119        -0.43406
C         47.79207        20.18041        -0.71021
C         46.54675        20.95247        -0.61332
C         47.77560        23.05433        -1.14920
C         46.53670        22.36926        -1.04198
C         47.79264        24.45983        -1.38543
C         46.54228        25.17962        -1.47906
C         47.76858        27.30960        -2.07159
C         46.52342        26.59408        -1.59761
C         47.82933        28.75662        -1.63534
C         46.56182        29.45585        -1.89021
C         47.81685        31.64518        -1.49345
C         46.57489        30.95591        -1.87801
C         47.82156        33.12048        -1.52184
C         46.51842        33.89739        -1.79932
C         47.65329        35.91648        -0.81874
C         46.46700        35.30532        -1.29046
C         47.64196        37.33428        -0.48232
C         46.43640        38.05555        -0.38601
C         47.63323        40.18273        -0.20873
C         46.42760        39.46337        -0.26504
C         47.63065        41.63912        -0.08858
C         46.35753        42.34702         0.02677
C         47.59610        44.49370        -0.09862
C         46.33312        43.76197         0.10274
C         47.57649        46.00387         0.07262
C         46.31672        46.60739         0.51162
C         47.62210        48.76101         0.89184
C         46.37782        47.98825         0.98426
C         47.60807        50.15499         0.98452
C         46.35942        50.88715         0.85064
C         47.61107        53.03827         1.06714
C         46.37436        52.34663         0.86285
C         47.57451        54.44709         1.26512
C         46.39269        55.14924         1.28686
C         50.25972        20.22206        -0.96769
C         49.02496        20.90325        -0.92632
C         50.25200        23.03610        -1.08225
C         49.01717        22.32641        -1.05157
C         50.26120        24.46305        -1.24183
C         49.04694        25.13721        -1.48286
C         50.33539        27.34769        -1.49817
C         49.07489        26.56597        -1.83949
C         50.25486        28.78945        -1.17249
C         48.99830        29.46615        -1.35114
C         50.15182        31.61873        -0.73168
C         48.96222        30.92516        -1.18621
C         50.11767        33.04135        -0.55936
C         48.95817        33.80011        -0.88709
C         50.08872        35.88408        -0.26483
C         48.89703        35.19701        -0.67821
C         50.09085        37.31221        -0.14259
C         48.86716        38.03737        -0.27878
C         50.10084        40.15166        -0.03184
C         48.86421        39.45762        -0.17288
C         50.14278        41.62989        -0.29237
C         48.83472        42.32974        -0.02301
C         50.08203        44.45274         0.16079
C         48.87855        43.76810         0.04556
C         50.09718        45.93792         0.11699
C         48.84470        46.69980         0.37087
C         50.11375        48.70815         1.22429
C         48.85823        48.01647         0.75385
C         50.10101        50.20513         1.03424
C         48.87158        50.89173         1.01312
C         50.10245        53.00415         1.04091
C         48.85749        52.32000         1.04472
C         51.45774        20.91518        -0.97556
C         52.72508        23.05103        -0.80491
C         51.48096        22.32421        -0.95791
C         52.73716        24.44327        -0.88555
C         51.51474        25.19109        -1.11111
C         52.73670        27.38142        -0.82889
C         51.51995        26.58515        -1.09031
C         52.60703        28.77591        -0.36667
C         51.38236        29.46638        -0.63789
C         52.48347        31.55608         0.11432
C         51.32501        30.88992        -0.41027
C         52.46089        32.99107         0.23526
C         51.29324        33.72110        -0.10064
C         52.48434        35.85213         0.31125
C         51.28122        35.15395        -0.01893
C         52.49045        37.27166         0.39246
C         51.28422        38.00957         0.17385
C         52.48289        40.17378         0.56464
C         51.28230        39.44803         0.20450
C         52.52397        41.57361         0.59931
C         51.34267        42.33994         0.29021
C         52.56392        44.44996         0.65763
C         51.33484        43.73096         0.35436
C         52.59455        45.86483         0.65077
C         51.39160        46.65382         0.34599
C         52.60203        48.74824         0.92227
C         51.39320        48.06118         0.78273
C         52.60038        50.18968         1.00883
C         51.34174        50.90401         1.02964
C         51.30013        52.32443         1.00796
C         55.07125        22.94531        -0.07475
C         53.90362        22.32849        -0.37157
C         55.25099        24.37253        -0.36446
C         54.02610        25.15788        -0.77789
C         55.01476        27.29905         0.29723
C         54.03024        26.65343        -0.59653
C         54.91924        28.65165         0.60896
C         53.72603        29.42470         0.21781
C         54.70232        31.51234         1.30359
C         53.63837        30.81705         0.48252
C         54.82580        32.98904         0.97778
C         53.66112        33.69812         0.59718
C         54.89453        35.82795         0.85104
C         53.68285        35.12606         0.58302
C         54.90149        37.26036         0.90790
C         53.69279        37.95257         0.73578
C         54.95918        40.13076         1.26146
C         53.63300        39.39114         1.01500
C         54.95328        41.58587         1.10803
C         53.76362        42.27090         0.89502
C         54.95522        44.42082         1.21793
C         53.76864        43.71959         0.88998
C         54.84421        45.79000         1.45532
C         53.76188        46.57343         1.00842
C         55.07418        48.72506         0.73660
C         53.85550        48.02263         0.90600
C         55.03049        50.14429         0.73726
C         53.84952        50.84661         0.93165
C         57.55878        24.48151         0.54024
C         56.35570        25.09742         0.31508
C         57.26714        27.16441         1.51829
C         56.09233        26.45082         0.84115
C         57.19425        28.62958         1.62637
C         56.04325        29.32700         1.27192
C         57.17288        31.48157         1.68332
C         56.03051        30.78264         1.37318
C         57.19322        32.96022         1.72961
C         56.01140        33.69291         1.24482
C         57.35466        35.80645         1.18147
C         56.08690        35.10406         1.11719
C         57.38818        37.22474         1.01808
C         56.15918        37.97087         1.03434
C         57.44040        40.07973         0.89685
C         56.20488        39.37196         1.08214
C         57.46642        41.50596         0.86560
C         56.25904        42.26628         1.24958
C         57.52425        44.45002         0.75455
C         56.30335        43.77304         1.32123
C         57.55764        45.85664         0.44311
C         56.63263        46.79473         0.97522
C         57.27325        48.51750        -0.55443
C         56.34316        48.03918         0.41252
C         58.67253        25.17278         1.10534
C         59.74764        27.23754         1.89082
C         58.57713        26.48683         1.49887
C         59.66681        28.54550         2.21931
C         58.39250        29.29207         2.17794
C         59.69799        31.52610         1.96442
C         58.41215        30.81419         2.13729
C         59.75190        32.84344         1.70594
C         58.53358        33.67974         1.74853
C         59.79233        35.78394         1.16998
C         58.57094        35.09939         1.32606
C         59.82412        37.14888         0.93091
C         58.63143        37.90748         0.89205
C         59.84122        40.07382         0.48626
C         58.65084        39.34860         0.73938
C         59.83196        41.45026         0.35493
C         58.64244        42.20306         0.54177
C         59.64922        44.25816        -0.44772
C         58.60817        43.65797         0.32605
C         59.58459        45.56264        -0.88314
C         58.51659        46.40002        -0.46269
C         58.36262        47.74456        -0.91647
O         56.22677        26.49582         2.30366
O         45.83516        20.75377         0.67062
O         44.07213        34.85337        -2.86265
O         50.00559        26.95085        -2.90067
O         39.55481        21.82846         0.98966
O         27.42700        40.81674        -1.84932
O         55.03078        24.73343        -1.76815
O         30.29935        35.94456         1.18916
O         47.48681        33.67057        -2.86052
O         29.59033        44.08688        -2.75119
O         58.20308        30.09421         3.39571
O         53.78973        27.31338        -1.88108
O         54.10762        39.69618         2.37182
O         47.53907        45.39273        -1.26547
O         56.46788        42.98407         2.53806
O         46.61800        30.22675        -3.15575
O         37.93545        32.70262         0.25633
O         42.60963        40.71064         1.40992
O         44.13404        51.69079        -0.95643
O         29.27102        26.68099        -0.51563
O         38.04501        49.36655        -1.75379
O         43.36893        24.88938        -2.99972
O         57.74845        33.49067         2.98005
O         39.75092        55.18878        -1.28738
O         30.40917        49.63506        -2.93283
O         27.13918        42.71645         1.30832
O         40.00966        32.13383        -2.96682
O         55.90504        46.41999         2.11443
O         50.85852        46.46614        -1.04119
O         30.70224        24.52825        -0.30562
O         45.63027        48.28049         2.20720
O         41.64340        54.79785         1.91411
O         34.62546        37.72377        -2.86821
O         39.87927        23.61032        -2.33885
O         43.42747        22.33919        -2.72856
O         37.98055        46.15268         1.39353
O         39.27188        48.68065         1.50746
O         26.97770        31.12297        -0.36682
O         42.07576        18.20488        -2.17470
O         24.36012        46.14213        -2.11034
O         50.09518        48.50609         2.69757
H         50.81038        49.05978         3.07865
O         29.83767        37.07904        -2.27321
H         29.81378        37.94804        -2.75044
O         24.88546        44.13600         1.72791
H         25.74758        43.60911         1.78122
O         45.11273        36.77716         1.13339
H         45.05979        37.56412         1.71635
O         26.09699        36.34095         2.73697
H         26.90817        36.91239         2.72697
O         29.89122        39.91509        -2.83290
H         28.98485        40.29823        -2.94989
O         36.75170        39.73396        -3.05031
H         36.04384        39.19383        -3.47514
O         45.06663        40.39123        -1.95734
H         45.88631        40.85060        -2.24201
O         29.89021        29.01396        -1.46943
H         29.26301        28.27759        -1.65633
O         33.03909        50.40589        -3.01957
H         32.19156        50.08545        -3.41857
O         41.69533        57.05646        -1.03428
H         40.96746        56.60524        -1.52927
O         36.46483        33.55092        -3.01135
H         35.68108        34.03577        -3.34686
O         28.47365        37.75685         1.96542
H         29.30488        37.23432         2.09915
O         35.76455        24.74447         2.00372
H         36.59668        24.26557         2.20678
O         47.57563        27.38161        -3.51748
H         48.46452        27.53936        -3.91351
O         54.18641        31.46623         2.68235
H         54.87934        31.83669         3.27081
O         38.55126        42.06003         1.51464
H         39.24719        42.52198         2.02971
O         41.48731        34.16944        -3.63999
H         41.11874        33.36121        -4.06525
O         50.33303        41.73673        -1.76184
H         50.34117        42.69362        -1.98315
O         30.15612        29.59766         2.11864
H         29.63188        30.10395         2.77441
H         23.28482        27.55590         4.83239
H         22.93520        29.79810         3.90628
H         22.62457        31.49929         3.08539
H         22.44613        33.82415         2.40380
H         22.24689        35.54969         1.46004
H         22.15965        37.92529         0.99228
H         22.09084        39.85501         0.68050
H         22.09931        42.28386         0.45175
H         22.21563        44.28296         0.87999
H         22.00255        46.53564         0.02512
H         26.70910        24.23803         4.51738
H         24.68436        25.52553         5.08792
H         25.35017        49.89343        -0.94446
H         23.31452        48.73606        -0.34006
H         28.44776        23.38662         4.25309
H         26.91216        50.81257        -1.29759
H         30.33435        22.01195         3.47363
H         28.95932        52.07197        -1.27316
H         33.04142        19.27172         1.25000
H         31.05218        20.57738         1.82208
H         32.70952        54.05994        -0.23009
H         30.63012        52.85206        -0.61029
H         34.55371        18.30067         0.67102
H         34.31557        55.04490        -0.12969
H         36.59536        17.04183         0.30306
H         36.40512        56.27328         0.11695
H         40.35288        14.86284         0.23608
H         38.27555        16.13254         0.46238
H         40.10306        58.36528         1.21012
H         38.03199        57.15467         0.84800
H         42.79543        14.79423        -0.28997
H         42.64472        58.41200         1.36956
H         44.91864        15.97358        -0.54328
H         44.66997        57.13947         1.75527
H         48.67467        18.22274        -0.48280
H         46.60161        16.98684        -0.36622
H         48.50771        54.99690         1.44385
H         46.41629        56.23030         1.47705
H         50.28701        19.12505        -0.95743
H         50.12688        54.10145         1.03824
H         52.39253        20.34105        -0.98834
H         52.23303        52.90262         0.98472
H         55.88743        22.38571         0.40305
H         53.81500        21.25559        -0.15795
H         55.97029        50.70267         0.62298
H         53.89880        51.94288         0.97628
H         57.71649        23.45410         0.18328
H         57.13012        49.50974        -1.00521
H         59.64792        24.66704         1.13813
H         60.71018        26.70807         1.94248
H         60.55632        29.06716         2.59705
H         60.63061        30.94598         1.99644
H         60.72403        33.31782         1.51177
H         60.74357        35.24300         1.26144
H         60.79878        37.64373         0.82890
H         60.79452        39.54159         0.36720
H         60.78045        41.96196         0.14450
H         60.48816        43.63642        -0.78758
H         60.35756        45.96242        -1.55458
H         59.10148        48.14477        -1.62529
