         276
 CSIRO Nanostructure Databank - Neutral Graphene Oxide Data Set
C        -11.22217         0.56848        -0.41890
C        -10.00004         1.40118        -0.08083
C         -8.68881         0.60171        -0.17466
C         -7.36227         1.37334        -0.30412
C         -6.17105         0.51168        -0.76234
C         -4.78944         1.23191        -0.82836
C         -3.77146         0.72782         0.19288
C         -2.40331         1.34746         0.08104
C         -1.28301         0.69668         0.82678
C         -0.14451         1.50515         1.37421
C          1.17037         0.78629         1.18734
C          2.43163         1.56120         0.99545
C          3.74194         0.84763         0.74866
C          4.99154         1.61650         0.45120
C          6.27948         0.89059         0.33519
C          7.46014         1.55560         0.38305
C          8.72370         0.78982         0.28164
C          9.98997         1.55924        -0.01322
C         11.15653         0.77972        -0.48316
C         -9.92564         2.79561        -0.64816
C         -8.72856         3.48179        -0.76649
C         -7.45487         2.71991        -1.05302
C         -6.18947         3.51529        -0.81066
C         -4.90017         2.78010        -0.88407
C         -3.63440         3.55279        -0.58808
C         -2.36404         2.84521        -0.16978
C         -1.26031         3.64687         0.45170
C         -0.16855         2.98740         1.25034
C          1.13240         3.75878         1.33219
C          2.43897         3.03721         1.26735
C          3.74350         3.78195         1.09248
C          5.02265         3.06557         0.82576
C          6.28881         3.83688         0.55707
C          7.55315         3.05258         0.45707
C          8.74883         3.72131        -0.13263
C          9.88186         3.00721        -0.32844
C         -8.68768         4.89681        -0.70732
C         -7.47302         5.62630        -0.58143
C         -6.20199         4.88654        -0.63935
C         -4.96124         5.63577        -0.47086
C         -3.76278         4.99491        -0.30855
C         -2.50632         5.77220        -0.15814
C         -1.40522         5.13398         0.62152
C         -0.16168         5.93230         0.81369
C          1.11873         5.15900         0.78771
C          2.39038         5.86598         0.48390
C          3.73215         5.30077         0.96279
C          4.79692         5.88177        -0.07279
C          6.18819         5.13252        -0.26824
C          7.44440         5.97989        -0.09793
C          8.73272         5.22687        -0.42691
C         -7.49883         6.99902        -0.34100
C         -6.28757         7.80693        -0.15666
C         -4.96913         7.12538        -0.30249
C         -3.78509         7.89020        -0.91305
C         -2.46707         7.24326        -0.43677
C         -1.34683         8.03872         0.13671
C         -0.14765         7.38764         0.49943
C          1.07057         8.09847         0.58204
C          2.33103         7.36449         0.34438
C          3.61832         8.12245         0.29147
C          4.91001         7.34208         0.37092
C          6.19254         8.10232         0.31628
C          7.42914         7.33093         0.00010
C         -6.30332         9.28368        -0.29255
C         -5.17928        10.00292        -0.43454
C         -3.81117         9.44982        -0.77897
C         -2.66311        10.06851        -0.00125
C         -1.44604         9.46585         0.20730
C         -0.22811        10.28470         0.65218
C          1.10458         9.54062         0.56446
C          2.29946        10.22281         0.60885
C          3.63618         9.53938         0.84428
C          4.88465        10.23332         0.31410
C          6.04741         9.57264         0.12312
C        -11.24377        -0.76859        -0.53584
C        -10.00517        -1.58909        -0.80785
C         -8.74378        -0.89220        -0.31939
C         -7.51137        -1.77353        -0.44686
C         -6.21343        -0.94860        -0.41711
C         -5.22543        -1.41936         0.64968
C         -3.89348        -0.65559         0.75445
C         -2.65944        -1.43494         1.18010
C         -1.37646        -0.70914         1.35189
C         -0.06875        -1.47376         1.39959
C          1.21803        -0.70235         1.41017
C          2.56647        -1.39013         1.29961
C          3.83818        -0.60918         1.12372
C          5.23970        -1.25388         1.06381
C          6.12440        -0.58422        -0.04300
C          7.44993        -1.29925        -0.18342
C          8.64593        -0.65537        -0.07785
C          9.91314        -1.35105        -0.33332
C         11.13771        -0.57220        -0.49016
C        -10.00031        -3.05940        -0.40478
C         -8.91322        -3.72979         0.04191
C         -7.70871        -2.95839         0.58747
C         -6.38917        -3.75757         0.71155
C         -5.11687        -2.95044         0.70520
C         -3.80621        -3.55201         0.28970
C         -2.53927        -2.84022         0.66032
C         -1.22547        -3.55619         0.74093
C         -0.05563        -2.91783         1.04469
C          1.28091        -3.62851         0.99749
C          2.59191        -2.88221         1.08585
C          3.90722        -3.57734         1.50773
C          5.22062        -2.82239         1.05981
C          6.41298        -3.53336         0.46155
C          7.29228        -2.76903        -0.58088
C          8.67974        -3.45377        -0.96003
C          9.91693        -2.69548        -0.55863
C         -8.93046        -5.23570         0.22337
C         -7.60036        -5.91496        -0.09345
C         -6.33498        -5.28825         0.48150
C         -5.07638        -5.75353        -0.27092
C         -3.79816        -4.99782        -0.12007
C         -2.54901        -5.73740         0.29035
C         -1.22418        -5.00135         0.36458
C          0.02397        -5.77569         0.65889
C          1.21302        -5.11929         1.37705
C          2.54989        -5.86709         1.10094
C          3.85351        -5.10023         1.08487
C          5.03973        -5.73832         0.38505
C          6.32065        -5.00828         0.16630
C          7.37535        -5.58111        -0.72102
C          8.72414        -4.93834        -0.51065
C         -7.55083        -7.19500        -0.52045
C         -6.30198        -8.05626        -0.58894
C         -4.99948        -7.24607        -0.50254
C         -3.74847        -7.99570        -0.18036
C         -2.60853        -7.22847         0.43490
C         -1.33738        -7.99898         0.64133
C         -0.05949        -7.26714         0.79383
C          1.18315        -8.00581         0.40188
C          2.49070        -7.29520         0.53648
C          3.74208        -7.86063        -0.09232
C          4.76443        -6.86833        -0.58254
C          5.82214        -7.31833        -1.54421
C          7.15865        -6.67573        -1.47915
C         -6.27039        -9.12305         0.50100
C         -5.14373        -9.79199         0.78824
C         -3.85523        -9.52764         0.02025
C         -2.59658       -10.15837         0.69545
C         -1.32699        -9.44387         0.26963
C         -0.21044        -9.98686        -0.26230
C          0.91839        -9.05521        -0.71028
C          2.23441        -9.67714        -1.08154
C          3.21077        -8.85448        -1.72026
C          4.55132        -9.40374        -2.10961
C          5.70015        -8.70223        -2.07416
O         -1.21368         3.26487        -0.95570
O         -2.20556        -1.06243         2.50514
O         -3.08757        -2.77380        -0.71525
O         -8.70421        -0.28293         1.00313
O          9.09330        -5.04419         0.86607
H          8.34361        -4.77406         1.43723
O          7.16572         3.77199         1.70443
O         -4.03885        -7.57922        -1.55070
O          4.60022         3.33101         2.20242
O         -9.98240        -5.83509        -0.52448
H         -9.86320        -5.60789        -1.46914
O         -6.95740         1.74198         1.03427
H         -7.01347         0.92860         1.59321
O         -5.66029        -3.45788         1.95044
O          1.85480         3.47037         2.54826
O          5.61895         7.60971         1.60910
O          3.43937        -5.88425         2.24831
O         -5.96485        -1.01061         1.83307
H         -5.37457        -1.10043         2.61241
O          6.13957        -5.91158         1.32037
O          6.49662        -2.86729        -1.74432
O          9.63578         1.16225         1.36569
O          4.71042        -6.41289        -1.95824
O         -7.49411        -2.49449        -1.70708
H         -6.97732        -1.95460        -2.35241
O         -0.24798        -5.32165        -0.68932
O          3.91318        -3.54781         2.93323
H          4.81798        -3.79128         3.23139
O          4.35804        -8.77195         0.71139
H          3.70099        -9.07578         1.38872
O         -6.34125         2.10704        -3.10604
H         -5.99441         2.96827        -3.44909
O         -1.07342         5.63328         1.93883
O          2.07230        -3.32178        -0.19950
O         -4.04735         3.28124        -1.97198
O         -0.73019        -7.78131         1.97276
O         -1.37122         0.63253        -0.63914
O         -2.90164        -6.38336         1.57797
O          4.09336         1.23055        -0.62236
O          2.88643         7.92423        -0.92693
O         -4.13650         0.83364        -2.03994
H         -4.72234         1.06084        -2.79627
O         -7.61588         2.46179        -2.52582
O          0.94121        -5.20418         2.77603
H          1.80084        -5.19594         3.25698
O         -3.95138       -10.15553        -1.26692
H         -4.76561        -9.79395        -1.70330
O          1.58782         1.18226        -0.15640
O         -4.30702         6.38708        -2.73654
H         -3.44235         5.89487        -2.76274
O         -4.13038         0.54956         1.57538
O          6.37776        -3.25200         1.87737
O         -5.40670         7.46917         1.03502
O         -4.48329        -5.07103        -1.41710
O         -3.89433         7.72649        -2.38971
O         -0.50205         2.32378         2.51233
O          3.93015         5.84621         2.26862
H          4.47074         5.20123         2.78329
O          9.84578         5.84746         0.22155
H          9.77169         5.67764         1.18341
O          3.32044        -0.90642         2.45821
O          6.28220         4.68479        -1.59404
O          5.87439        -0.84358         2.28257
H          5.28847        -1.09682         3.03015
O        -10.19632         1.72436         1.33738
H         -9.86788         0.94041         1.84035
O          2.03096        -8.30530         1.52689
O         -6.05591        -0.51366        -1.80272
O          1.69886         5.15289        -0.56771
O          0.61182        -1.14482         2.65874
O          3.75936         9.44237         2.29013
H          4.52355         8.83451         2.46466
O         -1.97353         6.27651        -1.43938
O         -8.10934        -2.53891         1.88288
H         -7.29841        -2.46020         2.43718
O          5.43642        -0.62738        -1.28992
H          5.71751        -1.46040        -1.77800
O          4.16227         5.84941        -1.33895
H          4.78866         5.37057        -1.95489
O         -6.30843        -8.75621        -1.86190
H         -5.97285        -8.13403        -2.54316
O         -9.93100        -1.60505        -2.26703
H         -9.13779        -2.14848        -2.49560
O         -2.70386       -10.09028         2.11854
H         -2.37133        -9.22424         2.43797
O         -3.54525        10.03724        -2.08921
H         -2.79932         9.55515        -2.50590
O          0.37860        -8.25716        -1.78019
H          0.26171        -8.81910        -2.57331
O         -0.41642        10.72452         2.00511
H         -0.32573         9.95478         2.60361
O         -6.28421        -5.93487         1.72623
O          2.71975        -7.89021        -2.55741
H          3.45338        -7.31901        -2.89068
O          8.76784        -3.46750        -2.39720
H          7.85818        -3.19906        -2.71258
H         12.04473        -1.12801        -0.77205
H         12.07588         1.32498        -0.74466
H         10.77357         3.50445        -0.74140
H          8.90273         5.34680        -1.53182
H          8.38503         7.87934        -0.02864
H          6.93246        10.12744        -0.22600
H          4.85012        11.32208         0.15287
H          2.27901        11.32476         0.61534
H         -0.17838        11.21114         0.02456
H         -2.73490        11.15984         0.13169
H         -5.24833        11.10086        -0.46867
H         -7.26779         9.79706        -0.15758
H         -8.46973         7.51831        -0.34319
H         -9.63762         5.44057        -0.58775
H        -10.85256         3.38824        -0.56869
H        -12.17959         1.10730        -0.33094
H        -12.21248        -1.28118        -0.64594
H        -10.88631        -3.64263        -0.70835
H         -9.13496        -5.44617         1.30881
H         -8.48838        -7.68547        -0.82979
H         -7.20177        -9.34185         1.04387
H         -5.13821       -10.56875         1.56748
H         -2.55445       -11.23682         0.40685
H         -0.15772       -11.06030        -0.49987
H          2.59042       -10.52685        -0.47910
H          4.57565       -10.44635        -2.46359
H          6.63202        -9.18657        -2.40296
H          7.97823        -7.12912        -2.05602
H          9.50545        -5.46685        -1.10847
H         10.87542        -3.20680        -0.74132
