         344
 CSIRO Nanostructure Databank - Neutral Graphene Oxide Data Set
C          1.19105         3.43290         0.36016
C         -0.00781         4.12574         0.40076
C          1.15723         6.26835         0.16430
C         -0.02663         5.52777         0.33927
C          1.15402         7.71252         0.24984
C          0.10793         8.43899         0.82602
C          1.31170        10.56860         0.55635
C          0.17230         9.83169         0.94203
C          1.33149        12.05398         0.84695
C          0.06801        12.75748         0.40258
C          1.26471        14.89516         0.35352
C          0.04902        14.09532         0.24262
C          1.25351        16.27839         0.41938
C          0.03323        17.04813         0.49499
C          1.25444        19.24623         0.68726
C          0.01326        18.39461         0.61841
C          1.15398        20.50546        -0.24390
C         -0.08820        21.31352        -0.03642
C          1.12976        23.43583         0.13543
C         -0.07206        22.67645         0.11214
C          1.11438        24.92769         0.40398
C         -0.12206        25.66291        -0.05141
C          1.13999        27.74710        -0.31914
C         -0.09466        26.99550        -0.30238
C          1.16204        29.15213        -0.46754
C          3.65181         3.44295         0.24920
C          2.42264         4.13020         0.20433
C          3.62448         6.24219        -0.19586
C          2.40310         5.55851         0.02203
C          3.58448         7.67162        -0.56657
C          2.31283         8.46340        -0.25699
C          3.67850        10.60508        -0.18682
C          2.42628         9.91215         0.01616
C          3.71147        12.05732        -0.05138
C          2.54667        12.77018         0.30523
C          3.71883        14.90393        -0.07545
C          2.52736        14.17683         0.25439
C          3.73278        16.31852        -0.01573
C          2.55983        17.01366         0.61784
C          3.66283        19.16742        -0.02034
C          2.50073        18.48328         0.32338
C          3.63429        20.63541        -0.03561
C          2.41189        21.32163        -0.05878
C          3.61312        23.45691         0.13795
C          2.37133        22.74321         0.07164
C          3.60829        24.91373         0.01139
C          2.37364        25.61266        -0.06914
C          3.59398        27.73645        -0.42714
C          2.37830        27.02971        -0.26627
C          3.61024        29.15433        -0.51770
C          2.35963        29.84630        -0.53254
C          6.12282         3.46083         0.27169
C          4.87982         4.13519         0.17612
C          6.11019         6.24981        -0.09898
C          4.86347         5.55861        -0.05354
C          6.13820         7.69988        -0.40640
C          4.86333         8.44044        -0.63873
C          6.14261        10.59001        -0.50819
C          4.85850         9.90753        -0.46448
C          6.11271        12.05042        -0.89936
C          4.88176        12.78264        -0.41849
C          6.08279        14.91363        -1.02340
C          4.88674        14.17638        -0.45311
C          6.12894        16.37731        -0.64157
C          4.91640        17.05928        -0.32543
C          6.11348        19.26293        -0.69740
C          4.88376        18.48536        -0.29062
C          6.13584        20.66187        -0.11240
C          4.85625        21.34770         0.03423
C          6.13180        23.49716        -0.06610
C          4.82439        22.75812         0.09627
C          6.04683        24.93319         0.45660
C          4.81976        25.59583        -0.09390
C          6.11189        27.74230        -0.25253
C          4.87479        26.98142        -0.64354
C          6.09081        29.16476        -0.37665
C          4.85023        29.84553        -0.55655
C          8.58254         3.44716         0.13735
C          7.35201         4.15060         0.20700
C          8.57876         6.33631        -0.02027
C          7.32858         5.59376         0.09481
C          8.59066         7.69932        -0.13190
C          7.31289         8.46903         0.14170
C          8.60715        10.65008        -0.02136
C          7.31827         9.91669        -0.29221
C          8.62512        12.09153        -0.45705
C          7.37774        12.82570        -0.59657
C          8.65224        14.94523        -1.02630
C          7.37575        14.18209        -0.73628
C          8.61813        16.38737        -0.56966
C          7.37216        17.07931        -0.55549
C          8.59923        19.19200        -0.25868
C          7.39377        18.50389        -0.42376
C          8.61992        20.70068        -0.37216
C          7.31645        21.32205         0.05607
C          8.58986        23.50237         0.38458
C          7.30344        22.73786         0.58470
C          8.56872        24.92923         0.31586
C          7.34537        25.64958         0.20335
C          8.57265        27.77052         0.00538
C          7.33007        27.05094        -0.00530
C          8.55569        29.19699        -0.19710
C          7.31873        29.86966        -0.33648
C         10.98983         3.41617        -0.32260
C          9.82901         4.10696        -0.05044
C         11.10503         6.28876        -0.30140
C          9.87418         5.59189         0.22103
C         11.10727         7.69879        -0.41094
C          9.80316         8.41352        -0.66650
C         11.05868        10.54230        -0.49607
C          9.86458         9.89065        -0.38589
C         11.10942        12.02320        -0.75102
C          9.82226        12.75283        -0.49776
C         11.03391        14.84385        -0.22397
C          9.88273        14.20274        -0.57163
C         11.09290        16.32156        -0.33587
C          9.81690        17.07806        -0.35531
C         11.06553        19.20433         0.13450
C          9.82983        18.48897        -0.16206
C         11.04302        20.65893         0.34932
C          9.83531        21.37058         0.23554
C         11.02687        23.54936         0.60669
C          9.81239        22.80557         0.40097
C         11.02837        24.94072         0.55365
C          9.80858        25.64911         0.32445
C         11.02840        27.80694         0.12379
C          9.79188        27.08022         0.18954
C         11.01544        29.21321        -0.17194
C          9.78044        29.89215        -0.28414
C         13.50491         3.42065        -0.17696
C         12.27524         4.09043        -0.71062
C         13.54157         6.26462        -0.48179
C         12.29487         5.57498        -0.44104
C         13.55729         7.68860        -0.44635
C         12.32162         8.40065        -0.49272
C         13.53094        10.55612        -0.41744
C         12.33068         9.84430        -0.53547
C         13.51261        11.99211        -0.15390
C         12.32416        12.68241        -0.17450
C         13.48980        14.78987         0.58645
C         12.15694        14.04480         0.43735
C         13.51481        16.28446         0.60154
C         12.32321        17.05184         0.10358
C         13.48319        19.18847         0.74809
C         12.23771        18.50630         0.34229
C         13.50532        20.66901         0.65188
C         12.25898        21.34789         0.62632
C         13.53332        23.52702         0.64247
C         12.26616        22.80114         1.01976
C         13.60939        24.99276         1.02798
C         12.23219        25.77177         0.98228
C         13.45056        27.80322        -0.00622
C         12.26248        27.12539         0.27624
C         13.46372        29.21784        -0.27006
C         12.24248        29.90603        -0.31106
C         15.92848         3.41235         0.12657
C         14.73564         4.09559        -0.17914
C         15.98678         6.25929        -0.42236
C         14.77444         5.54210        -0.42775
C         15.99914         7.67572        -0.41384
C         14.79390         8.39697        -0.40141
C         15.97382        10.55161        -0.10269
C         14.78787         9.85410        -0.32395
C         15.99297        11.98497         0.01060
C         14.76713        12.69066         0.08650
C         15.97592        14.81847         0.16339
C         14.76963        14.09116         0.29702
C         15.96568        16.27043         0.19307
C         14.81242        16.97158         0.42758
C         16.07218        19.17067         0.74412
C         14.78223        18.41236         0.77226
C         16.00970        20.66320         0.60748
C         14.71276        21.37457         0.56284
C         15.99051        23.53287         0.34981
C         14.72647        22.82144         0.49328
C         15.95357        24.95291         0.16920
C         14.76698        25.65070         0.29990
C         15.99796        27.82305        -0.36680
C         14.68851        27.03635        -0.16782
C         15.94080        29.28995        -0.23941
C         14.70685        29.93121        -0.32216
C         18.44551         3.41524         0.48129
C         17.23208         4.02374        -0.09005
C         18.50204         6.26786        -0.03019
C         17.27274         5.52798        -0.39013
C         18.52022         7.67126        -0.08866
C         17.30012         8.44654        -0.54083
C         18.50194        10.56191         0.06189
C         17.22390         9.77142         0.22590
C         18.48616        11.97778         0.00385
C         17.23027        12.70546         0.03438
C         18.47063        14.85577        -0.11068
C         17.21969        14.12189         0.02004
C         18.48122        16.27046        -0.24384
C         17.17548        17.03177        -0.29635
C         18.54692        19.15823         0.00015
C         17.31716        18.40666         0.35442
C         18.47280        20.64237        -0.19782
C         17.19031        21.37396         0.03073
C         18.46485        23.49541         0.12700
C         17.23021        22.84014         0.19817
C         18.43693        24.98378         0.39270
C         17.23926        25.62438        -0.31733
C         18.41910        27.82827         0.09922
C         17.25044        27.12156        -0.10594
C         18.38175        29.28651         0.11713
C         17.16570        29.97246        -0.02699
C         19.58887         4.12577         0.63008
C         20.83164         6.27669         0.67282
C         19.65552         5.55513         0.38498
C         20.86069         7.66130         0.56400
C         19.70787         8.38284         0.18893
C         20.92657        10.57524         0.00143
C         19.71637         9.85184         0.08108
C         20.92242        11.95802        -0.07319
C         19.71414        12.69161        -0.06822
C         20.90154        14.87378        -0.30873
C         19.70278        14.14412        -0.15418
C         20.89430        16.25189        -0.46063
C         19.68627        16.97321        -0.44317
C         20.93080        19.24522        -0.56338
C         19.65177        18.46427        -0.77801
C         20.93603        20.59006        -0.31501
C         19.74528        21.38506        -0.18581
C         20.91565        23.57789        -0.07006
C         19.71438        22.79726        -0.03997
C         20.91554        24.96326         0.00354
C         19.73305        25.71652         0.13343
C         20.87526        27.92411         0.25871
C         19.70586        27.14168         0.17460
C         20.81591        29.32380         0.31933
C         19.60350        29.99858         0.25760
O         12.09046        16.75781        -1.33630
O         17.55835        20.95343        -1.32963
O          5.73406         8.01732        -1.76602
O         14.02589        18.64650         2.01165
O         13.44987        15.54685         1.86516
O         15.27254        27.25315        -1.51468
O         17.43282         4.55987        -1.46790
O          2.66770         8.03577        -1.63419
O         16.27921        20.02054         1.90642
O         18.38970        18.59291         1.33186
O         17.35432        25.39583        -1.73902
H         16.62095        25.90073        -2.16366
O          4.99031        26.82106        -2.12799
H          4.88374        27.71612        -2.51679
O         16.87006        17.29201        -1.70143
H         17.65397        17.74487        -2.10810
O          7.12766         8.46436         1.59402
H          7.72784         9.15977         1.95918
O          7.10241        22.64301         2.03230
H          6.34614        22.03739         2.18854
O         11.27505        12.10929        -2.22064
H         11.10036        13.03975        -2.48357
O          8.65856        10.72637         1.46843
H          9.46582        11.23110         1.71244
O          1.40598        19.72081         2.05610
H          0.72991        20.41604         2.21049
O          1.38480        12.17137         2.30758
H          1.45723        13.12622         2.52084
O         17.11945         9.41124         1.63760
H         17.06065        10.24014         2.15722
O          9.61480         8.34205        -2.13440
H         10.30088         8.90877        -2.54927
O         12.25669        22.80188         2.52915
H         12.71684        21.98297         2.81820
O          1.12096        25.05452         1.88623
H          1.21539        26.00856         2.09552
O          6.06573        19.45466        -2.15207
H          6.89914        19.92320        -2.39541
O         11.89725        26.16408         2.34415
H         12.72748        26.06767         2.87477
O          8.68202        20.96378        -1.83448
H          9.53471        20.60095        -2.15975
O         10.03967         5.68022         1.68763
H          9.23292         5.29770         2.09465
O          8.70903        15.00228        -2.49048
H          7.78557        15.17840        -2.80567
O         18.16960        25.15196         1.82202
H         18.91178        24.74646         2.31723
O         11.65992        13.76027         1.78677
H         12.07752        14.43000         2.38203
O          5.93027        14.87527        -2.49431
H          5.88390        13.91298        -2.73572
O          1.12259        19.95128        -1.59084
H          1.11399        20.69899        -2.22412
O          6.03361        12.06266        -2.37702
H          5.40456        11.35860        -2.64732
O         19.29835        18.55665        -2.19601
H         20.05554        18.22657        -2.72350
O          6.40724        23.59457        -1.47908
H          6.56253        22.68950        -1.82564
O         17.47056         8.77199        -1.94533
H         17.53489         7.93219        -2.44649
O          2.81054        16.98475         2.09097
H          2.28937        17.72416         2.48071
O         14.02084        24.94285         2.44016
H         13.50932        24.18860         2.83464
O          5.84455        24.93821         1.89775
H          6.48119        24.28677         2.29066
O         12.35484         3.96010        -2.19047
H         13.18877         4.39137        -2.47658
H          1.20515         2.33827         0.46122
H         -0.95410         3.57923         0.51726
H         -0.99038         6.04908         0.41944
H         -0.77728         7.91700         1.21503
H         -0.66656        10.35947         1.41597
H         -0.86257        12.17934         0.30309
H         -0.89703        14.59734        -0.00622
H         -0.92686        16.51161         0.46485
H         -0.95808        18.90263         0.71345
H         -1.05788        20.79825        -0.09855
H         -1.03516        23.19602         0.22150
H         -1.09019        25.14197        -0.04199
H         -1.02915        27.53316        -0.52608
H          0.20882        29.69924        -0.51311
H          3.65365         2.35115         0.38428
H          2.35730        30.94329        -0.60804
H          6.12728         2.36507         0.37097
H          4.85222        30.94193        -0.63848
H          8.55497         2.34683         0.10113
H          7.31525        30.96187        -0.46971
H         10.94843         2.32007        -0.42962
H          9.77571        30.97682        -0.46840
H         13.48535         2.34032         0.03241
H         12.23354        30.99278        -0.47997
H         15.87998         2.38187         0.50942
H         14.67285        31.03111        -0.31503
H         18.40068         2.36003         0.79003
H         17.16145        31.07188         0.01808
H         20.48820         3.63768         1.03475
H         21.73094         5.73308         0.99653
H         21.79084         8.19523         0.80250
H         21.88780        10.04358        -0.01196
H         21.88700        12.47880        -0.13177
H         21.86746        14.35356        -0.33973
H         21.85030        16.77295        -0.60676
H         21.89807        18.73532        -0.68296
H         21.91284        21.08929        -0.22701
H         21.87912        23.06649        -0.19843
H         21.87991        25.48374        -0.09076
H         21.85844        27.43651         0.31042
H         21.75051        29.89493         0.41219
H         19.58036        31.09731         0.29010
