         324
 CSIRO Nanostructure Databank - Neutral Graphene Oxide Data Set
C          1.65401         2.08696         2.30601
C          1.54676         3.48295         2.00647
C          2.85182         1.42975         2.20969
C          2.64825         4.24879         1.69998
C          1.41124         6.42120         1.59441
C          1.38021         7.83122         1.40672
C          2.54163         5.65652         1.36014
C          2.46670         8.56383         0.96082
C          1.30078        10.77679         1.19248
C          1.32093        12.14920         1.21130
C          2.48413        10.02299         0.92883
C          2.50403        12.89622         0.92857
C          1.29738        15.09344         1.13613
C          1.30799        16.47635         1.16201
C          2.47742        14.32119         0.94188
C          2.48954        17.23031         0.88235
C          2.53690        18.65270         0.94102
C          4.04937         2.13189         1.83609
C          4.03324         3.64540         1.86897
C          5.21740         1.45943         1.57287
C          5.11792         4.26600         1.01630
C          3.68607         6.29855         0.69310
C          3.64895         7.82743         0.47141
C          4.99826         5.63569         0.64467
C          4.94578         8.50893         0.35814
C          3.67027        10.72059         0.64821
C          3.70701        12.15808         0.60000
C          4.94710         9.97822         0.54487
C          4.87042        12.83547         0.14015
C          3.71767        15.06667         0.71412
C          3.66668        16.52731         0.52302
C          4.93530        14.30143         0.20960
C          4.82663        17.21879         0.14723
C          3.72274        19.32483         0.72757
C          4.90049        18.63118         0.31864
C          6.39592         2.13460         1.09047
C          6.30524         3.54742         0.77481
C          7.56867         1.44198         0.82993
C          7.41534         4.17622         0.13193
C          6.09520         6.35307         0.14253
C          6.10527         7.79279         0.10184
C          7.26927         5.57588        -0.29572
C          7.45371         8.50472         0.05575
C          6.17775        10.72781         0.09589
C          6.07153        12.16320        -0.24785
C          7.34478         9.95655        -0.37032
C          7.18238        12.82036        -0.77817
C          5.91197        15.02823        -0.66228
C          5.92472        16.52733        -0.55936
C          7.13385        14.25831        -1.15097
C          7.22441        17.28916        -0.78431
C          6.17105        19.27688         0.25860
C          7.33419        18.59876        -0.11121
C          8.71835         2.08580         0.27381
C          8.62009         3.48324        -0.09072
C          9.91945         1.39037         0.09455
C          9.79071         4.15614        -0.59085
C          8.49552         6.29873        -0.81549
C          8.53635         7.77396        -0.72405
C          9.76950         5.55499        -0.84317
C          9.69163         8.43295        -1.03311
C          8.43388        10.60907        -0.84938
C          8.37569        12.05278        -1.17050
C          9.77647         9.92011        -0.74419
C          9.69706        12.82573        -1.39703
C          8.43146        15.00659        -1.40670
C          8.48150        16.55394        -1.15883
C          9.70728        14.28214        -1.26101
C          9.77812        17.16550        -0.83126
C          8.62621        19.09558         0.19304
C          9.81004        18.42604        -0.13297
C         11.08836         2.02060        -0.41479
C         11.01522         3.43225        -0.75771
C         12.31546         1.34280        -0.48937
C         12.16006         4.09639        -1.22548
C         10.95506         6.25560        -1.11708
C         10.93315         7.70369        -1.26014
C         12.16669         5.51717        -1.32670
C         12.12331         8.39460        -1.37415
C         10.89715        10.63405        -1.49016
C         10.98304        12.11155        -1.35541
C         12.15974         9.84759        -1.65286
C         12.17481        12.80701        -1.35238
C         10.93329        14.96307        -1.20497
C         10.94810        16.40476        -1.11276
C         12.20044        14.25116        -1.22269
C         12.21884        17.02406        -1.23451
C         11.05057        18.99957         0.40720
C         12.23286        18.95439        -0.24781
C         13.50167         1.96502        -0.97398
C         13.38826         3.32928        -1.53078
C         14.74884         1.35304        -0.94832
C         14.67390         4.06414        -1.91509
C         13.37252         6.21157        -1.57450
C         13.37845         7.64229        -1.26111
C         14.60488         5.56456        -1.96247
C         14.66704         8.36778        -1.04221
C         13.46450        10.59186        -1.59719
C         13.47158        12.08981        -1.45841
C         14.61134         9.86829        -0.95218
C         14.71683        12.79895        -1.04902
C         13.43851        14.93572        -1.10633
C         13.43164        16.36594        -1.05734
C         14.71559        14.21523        -1.03739
C         14.68448        17.17810        -1.00191
C         13.59865        19.34071         0.23279
C         14.74634        18.54820        -0.40861
C         15.97474         2.04757        -1.25007
C         15.96348         3.39800        -1.66039
C         17.20926         1.37991        -0.96205
C         17.23737         4.11402        -1.91305
C         15.96139         6.38996        -1.89143
C         15.94940         7.72516        -1.33802
C         17.26031         5.62695        -1.98194
C         17.15174         8.33658        -0.74008
C         15.86085        10.61339        -0.63459
C         15.92658        12.08598        -0.87324
C         17.11602         9.81172        -0.39606
C         17.14841        12.77189        -0.74867
C         15.95387        14.90360        -0.92045
C         16.00047        16.38060        -0.99610
C         17.17828        14.19345        -0.76070
C         17.23624        17.06164        -0.59442
C         15.96539        19.15567        -0.29576
C         17.22816        18.46831        -0.43647
C         18.45407         2.01989        -1.00517
C         18.53064         3.40107        -1.53355
C         19.64943         1.38625        -0.61766
C         19.76014         4.18398        -1.24233
C         18.54528         6.34683        -1.69493
C         18.48816         7.69987        -1.02228
C         19.76669         5.55638        -1.38604
C         19.72116         8.51591        -0.91096
C         18.40792        10.55567        -0.31118
C         18.41989        12.01239        -0.67032
C         19.69708         9.83590        -0.50673
C         19.71226        12.73984        -0.50999
C         18.43898        14.90070        -0.56167
C         18.44326        16.32755        -0.45561
C         19.67723        14.21891        -0.41724
C         19.66503        17.02935        -0.22995
C         18.43841        19.15555        -0.23105
C         19.65992        18.45722        -0.15714
C         20.90854         2.05746        -0.62287
C         20.96809         3.47476        -0.89489
C         22.09244         1.37258        -0.29759
C         22.20257         4.16190        -0.78035
C         21.02940         6.28992        -1.32566
C         21.01481         7.86496        -1.13328
C         22.24347         5.59369        -0.93952
C         22.21158         8.47538        -0.55452
C         20.91848        10.54217        -0.21967
C         20.84618        12.00523         0.19329
C         22.11530         9.84555        -0.13062
C         22.16615        12.72386         0.04563
C         20.88625        14.90657        -0.20924
C         20.89770        16.32308        -0.11656
C         22.21197        14.18296        -0.33966
C         22.12731        17.03446         0.08796
C         20.89594        19.13913         0.02572
C         22.09657        18.45284         0.15326
C         23.34954         2.03540        -0.24619
C         23.40787         3.44779        -0.49231
C         24.53689         1.34909         0.08726
C         24.67663         4.11361        -0.49895
C         23.41789         6.32274        -0.70774
C         23.40046         7.72840        -0.48004
C         24.70088         5.57275        -0.77868
C         24.63034         8.36186         0.07139
C         23.32605        10.56088         0.34482
C         23.34368        12.03586         0.22768
C         24.63863         9.83200         0.36982
C         24.59692        12.71869         0.40110
C         23.38286        14.92762         0.27058
C         23.35396        16.30597         0.34211
C         24.48928        14.13320         0.93049
C         24.59254        17.05194         0.59623
C         23.34145        19.26990         0.40391
C         24.60563        18.46215         0.52270
C         25.77327         2.03302         0.20997
C         25.83872         3.43407        -0.15198
C         26.91067         1.37413         0.72070
C         27.22953         4.02932        -0.31642
C         25.99247         6.30957        -0.68226
C         25.94482         7.68361        -0.08152
C         27.27689         5.55571        -0.48419
C         27.19521         8.47676         0.03649
C         25.88785        10.60841         0.20105
C         25.81690        12.01969         0.31807
C         27.14208         9.91204         0.09751
C         27.04458        12.82485         0.11932
C         25.86238        14.89080         1.17052
C         25.81215        16.35960         0.78160
C         27.08997        14.23347         0.53731
C         27.02291        17.06778         0.84583
C         25.81105        19.15969         0.66438
C         27.01905        18.47408         0.82699
C         28.03652         2.14391         1.24729
C         28.15370         3.59192         0.81975
C         29.25112         1.49415         1.76636
C         29.46519         4.27097         0.98177
C         28.47235         6.32630        -0.03059
C         28.39955         7.80030         0.15591
C         29.60301         5.62412         0.62168
C         29.62341         8.50361         0.38395
C         28.37382        10.61445         0.14345
C         28.37879        12.07255         0.00919
C         29.61050         9.93262         0.32562
C         29.61316        12.81969         0.25986
C         28.28319        14.91016         0.56074
C         28.32162        16.32691         1.12176
C         29.55513        14.23269         0.34024
C         29.53359        17.10116         0.64293
C         28.28820        19.19600         1.20388
C         29.49977        18.50582         0.63306
C         30.39761         2.18976         1.96484
C         30.53196         3.59431         1.61699
C         31.73254         4.30037         1.84908
C         30.78508         6.34375         0.90789
C         30.83126         7.79180         0.65653
C         31.85311         5.64385         1.51464
C         32.01662         8.53289         0.75811
C         30.84404        10.65975         0.43045
C         30.84156        12.12131         0.37945
C         32.02413         9.92535         0.62026
C         32.02810        12.88109         0.45351
C         30.76983        14.96779         0.34264
C         30.72096        16.43101         0.27764
C         31.98996        14.26997         0.38500
C         31.83192        17.18107        -0.15612
C         30.61462        19.23710         0.20207
C         31.77218        18.57191        -0.20763
O         26.12776        14.86533         2.56831
O         10.07012        10.04692         0.64896
O         27.52315         3.29468         2.08575
O          7.50566         5.76443        -1.75480
O         25.21240         7.60784         1.20241
O          3.34481         6.89010        -0.60603
O          5.93145        10.46435         1.52545
O         11.28648        10.15495        -2.80380
O         15.45866        16.99818        -2.22343
O         13.98376         7.76086         0.13370
O         17.82206         7.52678         0.29557
O         25.42841         6.05532        -1.99622
O          8.42106        15.96683        -2.48901
O         12.25033        18.39678        -1.53976
O         17.70055        10.17054         0.89833
O         28.29051         5.95243        -1.46790
O         15.20384         6.21343        -3.12920
O         18.08016         3.48809        -2.92851
O         23.89413        10.10345         1.61461
O          4.87369        14.74996         1.60053
O         13.83153         3.42311        -2.92909
O         14.85135        10.33478         0.40855
O         27.64527        12.55308        -1.18199
O          6.20881        17.21396        -1.81844
O         21.19643         7.23926        -2.42556
O          5.99509        14.55150        -2.02802
O          8.83912        12.37290        -2.51802
O         13.74162        11.39815        -2.76315
O         18.07078         6.20337        -3.06288
O         19.33255        12.22721        -1.82305
O         22.47555        14.17235        -1.79395
H         21.69219        13.78237        -2.24023
O          4.41741         4.00560         3.24971
H          3.79019         3.55025         3.85124
O         13.67652        19.21309         1.66121
H         13.50828        18.28072         1.90753
O         20.50639        12.06439         1.60788
H         21.25188        11.68919         2.12420
O         28.41650        16.22256         2.57410
H         27.59062        15.71103         2.84405
O         28.39022        19.14501         2.64355
H         28.43270        18.18741         2.89244
O          7.96927         8.50719         1.41645
H          8.78862         9.09412         1.39096
O         27.76756         3.43278        -1.52241
H         28.16636         4.16198        -2.05466
O         23.47757        20.27425        -0.61712
H         23.70571        19.82679        -1.45755
O         23.93260        13.89293         2.25637
H         24.65814        14.21031         2.88576
H          0.73982         1.53204         2.55792
H          0.54073         3.92479         1.97211
H          2.90364         0.34092         2.35674
H          0.52384         5.95530         2.04594
H          0.46765         8.35112         1.72903
H          0.35771        10.25747         1.40706
H          0.39205        12.68088         1.45564
H          0.34117        14.58322         1.31511
H          0.37706        17.01802         1.38310
H          1.62682        19.20749         1.21076
H          5.24650         0.36258         1.66578
H          3.76499        20.41732         0.84444
H          7.62655         0.36824         1.06366
H          6.25539        20.30171         0.65091
H          9.97283         0.33040         0.38514
H          8.69757        20.04528         0.74343
H         12.37218         0.30092        -0.13985
H         10.99308        19.51743         1.37592
H         14.82732         0.31992        -0.57784
H         13.77898        20.42537         0.00810
H         17.16351         0.33678        -0.61443
H         16.00693        20.18898         0.08288
H         19.61678         0.33191        -0.30396
H         18.43056        20.24957        -0.11928
H         22.04833         0.29543        -0.07856
H         20.89822        20.23768         0.07743
H         24.49179         0.27566         0.32387
H         23.19304        19.83258         1.36709
H         26.88279         0.28586         0.88269
H         25.79804        20.25926         0.66518
H         29.21485         0.41360         1.97008
H         28.25133        20.27179         0.90273
H         31.28378         1.67819         2.36882
H         32.57448         3.78233         2.33038
H         32.78909         6.16848         1.75048
H         32.97067         8.02077         0.94464
H         32.98767        10.44588         0.69967
H         33.00309        12.38273         0.53591
H         32.93666        14.82664         0.41260
H         32.75196        16.66946        -0.47122
H         30.57534        20.33600         0.19518
H         32.64340        19.14527        -0.55367
