         204
 CSIRO Nanostructure Databank - Neutral Graphene Oxide Data Set
C        -11.05415         0.73184         0.49965
C         -9.84502         1.48469         0.25345
C         -8.63221         0.75586        -0.01524
C         -7.39936         1.48836        -0.18206
C         -6.16371         0.78851        -0.36180
C         -4.95650         1.46933        -0.28865
C         -3.66576         0.73190        -0.56189
C         -2.43653         1.44518        -0.05177
C         -1.24366         0.72221         0.16936
C         -0.00819         1.41884         0.41930
C          1.19372         0.69312         0.48699
C          2.45337         1.37551         0.80519
C          3.72326         0.69457         0.53637
C          4.94359         1.41700         0.56065
C          6.16449         0.70645         0.47570
C          7.45720         1.45073         0.69523
C          8.67767         0.70874         0.21988
C          9.87327         1.43405        -0.03589
C         11.09018         0.70000        -0.25034
C         -9.84109         2.87581         0.27654
C         -8.64579         3.63011         0.02129
C         -7.40118         2.89386        -0.14199
C         -6.16369         3.61079        -0.19364
C         -4.93556         2.88824        -0.15341
C         -3.70010         3.60115        -0.08474
C         -2.44288         2.85708         0.06512
C         -1.25954         3.54609         0.37891
C         -0.01745         2.86238         0.52076
C          1.18991         3.59685         0.62882
C          2.45872         2.91174         0.86286
C          3.73274         3.59801         0.57044
C          4.93228         2.87789         0.52198
C          6.17341         3.57676         0.25788
C          7.39900         2.88346         0.22995
C          8.61450         3.56923        -0.06665
C          9.84171         2.84205        -0.12779
C         -8.65011         5.00940        -0.06917
C         -7.43905         5.75081        -0.55990
C         -6.15227         5.02683        -0.25619
C         -4.93030         5.72749        -0.20919
C         -3.70724         4.99675        -0.11865
C         -2.38309         5.71170        -0.22057
C         -1.32723         5.02787         0.65218
C          0.00081         5.72353         0.51121
C          1.20188         5.03626         0.53218
C          2.47585         5.74078         0.40444
C          3.70087         5.01153         0.33341
C          4.91892         5.70101         0.04735
C          6.14814         4.98286         0.00088
C          7.36875         5.67672        -0.29623
C          8.57887         4.95874        -0.33115
C         -7.38463         7.20450        -0.19546
C         -6.18026         7.88444        -0.12956
C         -4.92269         7.17543        -0.17489
C         -3.70292         7.89053        -0.05896
C         -2.45892         7.20027         0.03792
C         -1.28121         7.90678         0.26439
C         -0.03740         7.18595         0.58773
C          1.27982         7.93779         0.46775
C          2.49695         7.14413         0.24406
C          3.68944         7.82872        -0.10443
C          4.90528         7.10646        -0.19958
C          6.13105         7.79099        -0.51406
C          7.32808         7.07995        -0.55714
C         -6.14552         9.32729         0.00062
C         -4.96914        10.01299         0.05249
C         -3.70036         9.32685         0.04121
C         -2.48848        10.02395         0.10650
C         -1.24918         9.34100         0.19529
C          0.00054        10.02237         0.07349
C          1.23043         9.35443         0.05504
C          2.45791         9.97113        -0.30288
C          3.65995         9.25403        -0.35437
C          4.89839         9.90208        -0.69493
C          6.07540         9.20974        -0.76587
C        -11.05415        -0.63084         0.50433
C         -9.84852        -1.38402         0.24826
C         -8.63572        -0.65391        -0.02718
C         -7.43911        -1.39274        -0.31156
C         -6.18052        -0.67045        -0.75221
C         -4.92387        -1.39861        -0.31272
C         -3.75394        -0.71244        -0.13680
C         -2.53840        -1.44026         0.36434
C         -1.23638        -0.71062         0.14342
C         -0.03442        -1.42228         0.15628
C          1.22119        -0.71850         0.26913
C          2.45049        -1.42065         0.27385
C          3.71119        -0.71071         0.37256
C          4.94392        -1.40809         0.35727
C          6.17210        -0.70636         0.38853
C          7.43612        -1.42995         0.26368
C          8.66990        -0.69795         0.15901
C          9.89440        -1.41840        -0.05038
C         11.10308        -0.67060        -0.22960
C         -9.84438        -2.77639         0.26096
C         -8.65500        -3.52195        -0.00015
C         -7.45480        -2.77549        -0.29608
C         -6.21479        -3.51268        -0.62876
C         -4.93912        -2.84208        -0.35480
C         -3.74312        -3.57347        -0.28399
C         -2.50661        -2.88779        -0.05394
C         -1.29798        -3.58346        -0.03469
C         -0.02818        -2.87162         0.09232
C          1.18981        -3.54492         0.07555
C          2.44866        -2.84902         0.12874
C          3.65605        -3.56789         0.07445
C          4.92648        -2.87912         0.34169
C          6.22432        -3.61809         0.19213
C          7.46523        -2.81833         0.12746
C          8.69343        -3.54751         0.06208
C          9.89460        -2.83102        -0.03181
C         -8.63709        -4.92600         0.06193
C         -7.47906        -5.72362        -0.20196
C         -6.24391        -5.03627        -0.66805
C         -4.95360        -5.72422        -0.51628
C         -3.75773        -5.02004        -0.40779
C         -2.50384        -5.73134        -0.33437
C         -1.32231        -5.01154        -0.17841
C         -0.06180        -5.75516        -0.02908
C          1.22786        -5.01871         0.09962
C          2.49179        -5.72573        -0.20363
C          3.70365        -4.98598        -0.14765
C          4.92604        -5.66513        -0.41815
C          6.27887        -4.97900        -0.48757
C          7.50254        -5.74055         0.08208
C          8.64699        -4.99016         0.22946
C         -7.44745        -7.08118         0.07860
C         -6.29296        -7.92155        -0.26876
C         -4.95917        -7.18868        -0.55697
C         -3.70781        -7.91499        -0.33355
C         -2.49686        -7.19444        -0.32576
C         -1.28885        -7.92131        -0.34358
C         -0.04738        -7.16111        -0.51572
C          1.25144        -7.88390        -0.58001
C          2.49714        -7.11934        -0.36929
C          3.71163        -7.81851        -0.53673
C          4.85139        -7.01533        -0.74772
C          6.65361        -8.06722        -0.11942
C          7.48886        -7.14970         0.46908
C         -6.15117        -9.31350         0.19823
C         -4.96810        -9.98056         0.13288
C         -3.70169        -9.32636        -0.16549
C         -2.47538       -10.02253        -0.14965
C         -1.24294        -9.33856        -0.29825
C          0.04324       -10.01670        -0.31034
C          1.25943        -9.35227        -0.41143
C          2.55249        -9.97569        -0.29334
C          3.75518        -9.26732        -0.37507
C          4.99333        -9.93282         0.01721
C          6.23463        -9.39895         0.27153
O          0.65504         7.70997         1.77827
O          5.99930        -7.61010        -1.28822
O         -1.92068         5.56145        -1.59797
H         -2.63188         5.87676        -2.19374
O          6.56396        -4.72211        -1.88846
H          6.62016        -5.59607        -2.33293
O          7.61066         1.52946         2.16875
H          6.80550         1.96646         2.52090
O         -5.79700        -7.72937        -1.63217
O         -6.15795        -0.67792        -2.22358
H         -6.24932        -1.61219        -2.51426
O         -1.75630         5.20934         2.03318
H         -1.02601         4.92198         2.62050
O         -7.55874         5.74224        -2.05199
H         -6.76426         6.19954        -2.40231
O         -3.53415         0.68631        -2.02623
H         -4.37293         0.29238        -2.37226
O          0.58550        -7.39054        -1.82161
O          5.61088        -3.54882         1.50840
O         -2.69389        -1.47518         1.83967
H         -1.93304        -1.97967         2.20052
O          2.46035         2.09824         2.08624
O         -6.32472        -4.24154        -1.90444
O          0.54847        -5.59483         1.30227
H         12.04596        -1.21751        -0.37713
H         12.02054         1.26080        -0.42259
H         10.77252         3.38885        -0.34010
H          9.51507         5.48687        -0.56554
H          8.26658         7.60545        -0.78908
H          7.00936         9.73325        -1.01803
H          4.88366        10.98423        -0.89238
H          2.46303        11.04312        -0.55291
H         -0.01778        11.10490        -0.12654
H         -2.49753        11.12437         0.10092
H         -4.97056        11.11020         0.13185
H         -7.10341         9.86703         0.03387
H         -8.32780         7.77169        -0.16618
H         -9.59197         5.56461         0.05969
H        -10.78130         3.41804         0.45944
H        -11.98331         1.28698         0.69615
H        -11.98360        -1.18463         0.70327
H        -10.77745        -3.31941         0.47443
H         -9.56409        -5.44679         0.34672
H         -8.31328        -7.55558         0.56591
H         -7.04928        -9.82686         0.57447
H         -4.93166       -11.04022         0.42842
H         -2.47931       -11.11697        -0.03482
H          0.04175       -11.11257        -0.20089
H          2.58881       -11.05839        -0.09337
H          4.85553       -10.98547         0.31790
H          6.96170       -10.03189         0.80534
H          8.13916        -7.45464         1.30380
H          9.58448        -5.49340         0.51489
H         10.85144        -3.37019        -0.09940
