         424
 CSIRO Nanostructure Databank - Neutral Graphene Oxide Data Set
C          1.29560         3.42151        -1.11395
C          0.13350         4.09565        -1.21300
C          1.16459         6.23556        -0.60235
C          0.05011         5.49050        -0.79634
C          1.03349         7.65198        -0.07477
C          0.17588         8.52763        -0.96767
C          1.13284        10.57240        -0.04737
C          0.15354         9.90278        -0.79402
C          1.12725        12.03754         0.30179
C         -0.13586        12.77343        -0.07255
C          1.10624        14.88898        -0.20371
C         -0.12082        14.10386        -0.28965
C          1.07336        16.31129        -0.07952
C         -0.14478        17.05394         0.01665
C          1.07350        19.16710         0.20938
C         -0.14278        18.41950         0.16702
C          1.09638        20.59639         0.38876
C         -0.07805        21.34863         0.64041
C          1.20423        23.41886         0.82420
C         -0.01635        22.71042         0.88166
C          1.29120        24.84885         1.33407
C          0.01850        25.65063         1.28243
C          1.24881        27.76202         1.02951
C          0.02962        27.00322         1.20618
C          1.26807        29.17354         0.97973
C          0.09456        29.94889         1.24658
C          1.28846        32.05037         0.85214
C          0.12103        31.31967         1.22791
C          1.30824        33.47243         0.93138
C          0.34425        34.23006         1.64175
C          1.53276        36.33337         1.20971
C          0.42626        35.61069         1.73456
C          1.63408        37.75101         1.35810
C          3.81820         3.47648        -0.83597
C          2.49869         4.12272        -0.52472
C          3.72180         6.31722        -0.39077
C          2.50213         5.60009        -0.92950
C          3.66972         7.68064        -0.03095
C          2.37443         8.33959         0.23649
C          3.64734        10.58159         0.21139
C          2.37057         9.85243         0.31465
C          3.64355        12.02671         0.08492
C          2.35446        12.70826        -0.34569
C          3.54779        14.91909        -0.02231
C          2.34342        14.20889        -0.14005
C          3.54241        16.33235        -0.06553
C          2.30143        17.03584        -0.03653
C          3.54205        19.17292         0.05965
C          2.29738        18.46008         0.08236
C          3.54833        20.57403         0.11852
C          2.34044        21.29627         0.31810
C          3.65236        23.42247         0.39973
C          2.37981        22.72221         0.49255
C          3.60916        24.90672         0.15785
C          2.44464        25.62665         0.76485
C          3.70270        27.72874         0.56230
C          2.45756        27.01354         0.77322
C          3.69818        29.16269         0.51778
C          2.48898        29.87725         0.66110
C          3.65331        31.97041         0.07068
C          2.47764        31.31151         0.49376
C          3.62323        33.40675        -0.24023
C          2.37684        34.20744         0.25136
C          3.74554        36.29321         0.12111
C          2.56778        35.63447         0.52609
C          3.83373        37.71449         0.29954
C          2.73180        38.42204         0.88521
C          6.25807         3.54168        -0.69049
C          4.99613         4.19440        -0.67696
C          6.16319         6.33763        -0.15793
C          4.95148         5.63313        -0.41107
C          6.12624         7.75004         0.05565
C          4.87075         8.42176         0.13899
C          6.10024        10.57797         0.32521
C          4.85030         9.86181         0.28637
C          6.06248        12.03868         0.69457
C          4.79870        12.73836         0.26657
C          6.09101        14.88490         0.02339
C          4.80080        14.23242         0.46642
C          6.02314        16.27997        -0.53961
C          4.78298        17.05453        -0.13964
C          6.03720        19.17981        -0.08333
C          4.78074        18.43915        -0.09065
C          6.06312        20.54543         0.05022
C          4.81104        21.32026        -0.21500
C          6.11909        23.45007         0.15761
C          4.84321        22.75441         0.23158
C          6.12942        24.88323         0.23902
C          4.92488        25.60776         0.37400
C          6.21167        27.74339         0.70356
C          4.91504        27.01310         0.48532
C          6.16163        29.17804         0.25212
C          4.93405        29.86594         0.27016
C          6.10556        31.94392        -0.33869
C          4.90410        31.27078        -0.01091
C          6.05655        33.34857        -0.88328
C          4.87112        34.14727        -0.40768
C          6.10583        36.26623        -0.65925
C          4.90025        35.55539        -0.36952
C          6.15952        37.67386        -0.48471
C          5.01231        38.38476        -0.04333
C          8.68309         3.54277        -0.31460
C          7.45490         4.23136        -0.40751
C          8.62185         6.37060         0.05481
C          7.41721         5.65842        -0.17194
C          8.60052         7.80140         0.20781
C          7.34875         8.48056         0.15371
C          8.58994        10.66539        -0.01795
C          7.30831         9.91049         0.23745
C          8.52474        12.12911         0.33523
C          7.33620        12.79306         0.36801
C          8.56345        14.93806        -0.13355
C          7.29582        14.24040         0.14728
C          8.52693        16.34845        -0.38153
C          7.31335        17.03150        -0.37812
C          8.43909        19.18666        -0.56931
C          7.27518        18.45965        -0.29226
C          8.54257        20.57194        -0.34214
C          7.36409        21.26006         0.30840
C          8.57368        23.42157        -0.15949
C          7.32778        22.74330         0.03099
C          8.58573        24.85246        -0.13789
C          7.38483        25.58483         0.11912
C          8.61054        27.69844        -0.04506
C          7.41140        26.99146         0.19353
C          8.60629        29.13639        -0.11849
C          7.36445        29.85544        -0.03960
C          8.57874        31.95694        -0.56670
C          7.34157        31.25984        -0.32398
C          8.54808        33.39229        -0.79714
C          7.37023        34.08191        -0.80510
C          8.61967        36.26450        -0.87850
C          7.32595        35.54572        -1.19441
C          8.61234        37.69799        -0.73607
C          7.38768        38.38115        -0.63490
C         11.10164         3.51448         0.16987
C          9.88317         4.22274        -0.00891
C         11.06895         6.34851         0.37619
C          9.85740         5.65460         0.12627
C         11.06572         7.80679         0.53741
C          9.81052         8.52993         0.45414
C         11.02051        10.68747         0.59298
C          9.82739         9.95138         0.45846
C         11.05720        12.09698         0.38709
C          9.79595        12.89880         0.58245
C         11.04541        14.94332        -0.31381
C          9.79145        14.27875        -0.03494
C         11.07499        16.29622        -0.73958
C          9.83070        17.14776        -0.42204
C         10.68333        19.30138        -1.55482
C          9.52111        18.41617        -1.26927
C         10.90062        20.57561        -1.10052
C          9.74820        21.27793        -0.54883
C         11.03108        23.40679        -0.62193
C          9.79042        22.70403        -0.41621
C         11.03430        24.82602        -0.49628
C          9.81306        25.55074        -0.29246
C         11.04758        27.69050        -0.37757
C          9.81843        26.97489        -0.25893
C         11.04669        29.11110        -0.39404
C          9.81071        29.83507        -0.35130
C         11.06859        31.96081        -0.65682
C          9.80119        31.26165        -0.53459
C         11.08940        33.38325        -0.83054
C          9.81913        34.09846        -1.21835
C         11.06119        36.26472        -0.73889
C          9.81593        35.56981        -0.87619
C         11.05928        37.69572        -0.65587
C          9.84521        38.39094        -0.66082
C         13.54969         3.49405         0.64036
C         12.28596         4.18832         0.49907
C         13.46357         6.34280         0.96578
C         12.24532         5.61180         0.58162
C         13.52894         7.75218         0.43947
C         12.24878         8.49646         0.68915
C         13.56877        10.66633         0.79302
C         12.24962         9.94397         1.09753
C         13.54375        12.11266         0.37836
C         12.25271        12.80774         0.19023
C         13.52971        14.85981        -0.33473
C         12.27515        14.19398        -0.17754
C         13.56513        16.24438        -0.64453
C         12.34584        16.91464        -0.97687
C         13.62169        19.04750        -1.31186
C         12.52343        18.21885        -1.54513
C         13.50816        20.52170        -1.56182
C         12.18402        21.29069        -1.38865
C         13.46989        23.43149        -1.00388
C         12.25395        22.73291        -0.98952
C         13.48982        24.82988        -0.68962
C         12.26446        25.54150        -0.54757
C         13.50681        27.67402        -0.39388
C         12.27266        26.96678        -0.45238
C         13.51331        29.09532        -0.38675
C         12.28362        29.82092        -0.45324
C         13.58540        31.94499        -0.76244
C         12.27303        31.24090        -0.54122
C         13.53110        33.42602        -0.48413
C         12.29161        34.10992        -0.70650
C         13.51941        36.26463        -0.55439
C         12.28976        35.55481        -0.68106
C         13.50539        37.70256        -0.58464
C         12.31367        38.38618        -0.61059
C         16.01777         3.46481         0.78036
C         14.74731         4.13809         0.89126
C         16.02644         6.36371         1.14851
C         14.73847         5.59469         1.17033
C         16.03440         7.78421         0.75760
C         14.80253         8.49852         0.70376
C         15.97943        10.44878        -0.17386
C         14.78674         9.87729         0.54209
C         15.98475        11.95797        -0.34471
C         14.76469        12.74514        -0.15442
C         16.03572        14.85257        -0.36479
C         14.77969        14.12838        -0.30034
C         16.03291        16.28103        -0.46618
C         14.80660        16.97642        -0.67353
C         16.07433        19.09380        -0.86876
C         14.82592        18.39301        -0.88825
C         16.08682        20.52733        -1.27526
C         14.81482        21.28848        -1.53087
C         15.99277        23.47420        -0.78172
C         14.78616        22.84312        -1.51335
C         15.95307        24.77639        -0.36521
C         14.71673        25.53408        -0.46269
C         15.95115        27.64547         0.02694
C         14.72589        26.93044        -0.28352
C         15.91499        29.06943         0.13107
C         14.75249        29.79560        -0.16494
C         15.92066        31.93877         0.18016
C         14.76580        31.23320        -0.15096
C         15.86810        33.42465         0.41855
C         14.69844        34.13193        -0.21743
C         15.97682        36.25976        -0.13112
C         14.73184        35.55798        -0.30236
C         16.02259        37.68258        -0.26431
C         14.79688        38.47721        -0.64734
C         18.48544         3.45166         0.56136
C         17.23378         4.12246         0.80547
C         18.53749         6.31709         0.68105
C         17.30887         5.58448         1.03872
C         18.53184         7.73328         0.63928
C         17.28206         8.46661         0.60873
C         18.51831        10.56945         0.25399
C         17.29104         9.84115         0.27890
C         18.53388        11.99107         0.09878
C         17.30556        12.71040        -0.28060
C         18.48346        14.88041        -0.06086
C         17.25318        14.17194        -0.18196
C         18.48541        16.28660        -0.25666
C         17.27681        16.99130        -0.44804
C         18.55159        19.14425        -0.56735
C         17.27944        18.42190        -0.64281
C         18.57443        20.55770        -0.63984
C         17.36181        21.29348        -1.05349
C         18.51348        23.44070        -0.28578
C         17.30342        22.78011        -0.82484
C         18.46158        24.79861         0.06823
C         17.12096        25.43771         0.34794
C         18.38491        27.65297         0.47376
C         17.15072        26.94486         0.23136
C         18.38736        29.06840         0.60869
C         17.07731        29.78493         0.75940
C         18.34714        31.96638         0.62221
C         17.13343        31.26061         0.47149
C         18.37776        33.41151         0.48863
C         17.18889        34.12820         0.26307
C         18.43040        36.25728         0.24272
C         17.19171        35.54463         0.12682
C         18.43890        37.68037         0.13976
C         17.21414        38.36547        -0.11534
C         19.66391         4.13898         0.44610
C         20.94268         6.29367         0.32782
C         19.72495         5.58325         0.48593
C         20.96284         7.67625         0.36824
C         19.76544         8.43195         0.49521
C         20.94351        10.63899         0.59906
C         19.75490         9.87545         0.45849
C         20.92281        12.01648         0.57868
C         19.71590        12.73649         0.32131
C         20.85141        14.96397         0.58612
C         19.69676        14.17480         0.24046
C         20.89363        16.30020         0.35039
C         19.82018        16.94853        -0.48547
C         20.96839        19.17135        -0.29464
C         19.77052        18.45124        -0.39330
C         20.97134        20.55937        -0.27327
C         19.77272        21.28119        -0.43845
C         20.92575        23.46062        -0.03140
C         19.74509        22.73832        -0.29569
C         20.88649        24.82097         0.22221
C         19.65827        25.51036         0.30950
C         20.80331        27.67759         0.78824
C         19.62269        26.95057         0.54782
C         20.79438        29.06036         0.89376
C         19.58623        29.78599         0.79751
C         20.76181        31.97840         0.96840
C         19.57577        31.25156         0.82899
C         20.78875        33.37400         0.86711
C         19.62919        34.11143         0.60235
C         20.84190        36.30328         0.60429
C         19.65118        35.56023         0.48393
C         20.84006        37.69792         0.49984
C         19.65524        38.38789         0.27261
O         17.60909        22.22095        -2.16059
O         13.79973        11.72411         1.81545
O          2.55313        33.82626        -1.14599
O         12.72786        20.97317        -2.70903
O         16.71211        12.28504        -1.58276
O         16.81710         6.04926         2.35182
O          2.32998         9.00591         1.54814
O         13.91133         6.03789         2.31279
O         11.56170        18.68835        -2.45564
O         15.60917        20.75680        -2.64843
O          9.00032        17.96989        -2.55269
H          9.76819        17.91833        -3.16581
O         13.82858        31.85360        -2.22279
H         12.99531        32.10843        -2.67367
O         15.78023         9.90678        -1.54820
H         16.30284        10.49978        -2.14144
O         15.58293        33.52816         1.87408
H         15.57642        34.48346         2.09882
O          8.72336        10.67522        -1.49214
H          7.90470        11.06952        -1.86210
O          2.65012         5.62604        -2.38058
H          2.62255         6.55949        -2.67608
O         14.71067        39.68089         0.12912
H         14.59052        39.43050         1.06776
O          6.03744        12.04964         2.18633
H          5.29921        11.46270         2.46256
O          9.79391        13.15077         2.04534
H          8.87725        13.39061         2.30275
O         16.78597        29.71954         2.22522
H         17.36161        30.38347         2.66289
O          7.58751        21.15368         1.76730
H          8.49642        21.47571         1.94705
O          7.22315        35.53640        -2.67033
H          8.04205        35.07931        -2.99035
O         14.90251        23.27195        -2.88756
H         15.53918        22.65074        -3.31487
O          5.87997        16.08954        -2.00775
H          6.49177        16.71773        -2.45029
O          2.22393        12.47945        -1.77691
H          2.88044        13.04314        -2.23726
O         13.60638         7.55309        -1.02772
H         14.04410         8.34278        -1.42155
O          3.36976        24.99437        -1.30846
H          4.05642        24.44391        -1.74519
O          0.27627         7.54952         1.16455
H          0.70695         8.17381         1.79886
O          9.76207        34.06898        -2.70591
H         10.57246        34.51577        -3.03358
O         10.09526        17.62767         0.92795
H         10.15082        16.84831         1.52055
O         12.09474         9.93634         2.54958
H         12.43411        10.80744         2.86471
O          1.31873        12.14623         1.73799
H          0.59999        11.65077         2.18209
O          1.60322        24.68728         2.77684
H          1.61012        25.58450         3.17405
O         16.86283        25.17386         1.78176
H         17.46330        25.75225         2.29911
O          6.39350        27.80723         2.17467
H          6.46430        26.88298         2.49622
O          4.78075        21.45529        -1.70486
H          4.70447        20.54835        -2.07363
O          2.36624         4.08121         0.92961
H          2.25750         3.14554         1.19829
O          5.81141        33.18767        -2.33163
H          6.02661        34.06051        -2.74896
O          4.76073        14.44463         1.92376
H          5.32069        13.73551         2.33133
O         20.17295        16.66591        -1.89209
H         20.15915        15.69096        -2.00185
H          1.36200         2.35303        -1.37075
H         -0.78091         3.59838        -1.56928
H         -0.94483         5.92191        -0.61349
H         -0.61813         8.04705        -1.55787
H         -0.64931        10.48650        -1.27065
H         -1.09124        12.22711        -0.08202
H         -1.06615        14.62287        -0.50468
H         -1.10821        16.52700        -0.01037
H         -1.10554        18.94236         0.24808
H         -1.05318        20.84659         0.69798
H         -0.94598        23.23574         1.13825
H         -0.94242        25.13873         1.43279
H         -0.92965        27.53845         1.24654
H         -0.84468        29.44367         1.50734
H         -0.79956        31.86922         1.46730
H         -0.49194        33.71745         2.13715
H         -0.35627        36.16415         2.27320
H          0.81650        38.29455         1.85325
H          3.86445         2.38514        -0.98278
H          2.80698        39.51368         0.99484
H          6.29405         2.45609        -0.86716
H          5.08162        39.47293         0.10184
H          8.70022         2.45169        -0.45509
H          7.38954        39.47379        -0.50926
H         11.10355         2.41936         0.06402
H          9.84392        39.48864        -0.59373
H         13.55800         2.40886         0.45324
H         12.31984        39.48597        -0.60207
H         16.00662         2.38030         0.58837
H         14.93539        38.81195        -1.71528
H         18.47925         2.35543         0.46745
H         17.22173        39.46092        -0.21273
H         20.60066         3.58768         0.27673
H         21.87874         5.73402         0.18778
H         21.92372         8.19595         0.25041
H         21.89939        10.12676         0.77522
H         21.86236        12.56276         0.73451
H         21.69656        14.48211         1.09816
H         21.77734        16.87586         0.65847
H         21.92636        18.63953        -0.22425
H         21.92896        21.08089        -0.15122
H         21.90265        22.96122        -0.05038
H         21.83507        25.35028         0.37732
H         21.76599        27.15827         0.87790
H         21.74819        29.57798         1.05655
H         21.71298        31.46059         1.14730
H         21.75519        33.88163         0.98496
H         21.79770        35.79339         0.78402
H         21.78580        38.24873         0.59912
H         19.65461        39.48403         0.19090
