         600
 CSIRO Nanostructure Databank - Neutral Graphene Oxide Data Set
C         22.98812        27.42994        -0.60492
C         22.97624        28.79704        -0.44467
C         22.95967        31.71347        -0.12550
C         22.95630        33.08443         0.02700
C         22.97102        35.97798         0.52303
C         22.98913        37.33746         0.75255
C         23.12707        40.15641         1.61301
C         23.12426        41.47943         1.93254
C         23.21098        44.48654         2.42333
C         23.30727        45.83103         2.73508
C         25.43239        24.61978        -0.88626
C         24.23884        25.30491        -0.83348
C         25.44339        27.41817        -0.50367
C         24.21723        26.71334        -0.64686
C         25.42840        28.84084        -0.32025
C         24.18258        29.53945        -0.30647
C         25.40065        31.68739        -0.06655
C         24.17218        30.97510        -0.16557
C         25.39918        33.11241         0.04824
C         24.16450        33.82052         0.12090
C         25.40392        35.96251         0.27761
C         24.17111        35.25236         0.30214
C         25.41516        37.38475         0.42378
C         24.20213        38.07084         0.71484
C         25.41907        40.19878         0.70753
C         24.23595        39.48969         0.96236
C         25.37772        41.66303         0.82629
C         24.16977        42.37597         1.42965
C         25.55044        44.46267         1.75482
C         24.32501        43.78332         1.91128
C         25.66192        45.85651         2.02866
C         24.51164        46.54452         2.51257
C         25.71739        48.66392         2.44651
C         24.57830        47.95120         2.74222
C         27.98109        23.17919        -1.03628
C         27.93511        24.58102        -0.81585
C         26.67853        25.29352        -0.75394
C         27.91655        27.41018        -0.40551
C         26.67965        26.70242        -0.55708
C         27.90457        28.82446        -0.18216
C         26.65462        29.54495        -0.15573
C         27.85815        31.69023         0.10946
C         26.64667        30.97422        -0.03342
C         27.87252        33.10761         0.10848
C         26.63768        33.82914         0.08820
C         27.87617        35.96898         0.11533
C         26.64241        35.25238         0.14777
C         27.87291        37.40214         0.11407
C         26.64487        38.10914         0.28866
C         27.84291        40.27767         0.06413
C         26.64423        39.53601         0.35102
C         27.76083        41.72980         0.24323
C         26.66099        42.36100         0.81207
C         28.06264        44.50953         1.15680
C         26.76398        43.71579         1.36544
C         28.02851        45.97604         1.23631
C         26.87018        46.61219         1.74770
C         28.07083        48.78390         1.59063
C         26.87972        48.02856         1.92509
C         28.11426        50.19022         1.73801
C         30.41944        23.17631        -0.96046
C         29.17922        22.50272        -1.10882
C         30.40698        24.58004        -0.72309
C         29.16073        25.28265        -0.65796
C         30.37900        27.40490        -0.27098
C         29.15133        26.70373        -0.44342
C         30.35848        28.81530        -0.05737
C         29.12535        29.50887         0.00082
C         30.37561        31.69044         0.18240
C         29.10824        30.93912         0.47472
C         30.36254        33.09992         0.12068
C         29.11356        33.82711         0.12136
C         30.34853        35.97185         0.02776
C         29.11139        35.24521         0.07592
C         30.33624        37.39446        -0.01263
C         29.09476        38.13202        -0.01324
C         30.37893        40.21209        -0.27961
C         29.07736        39.56274        -0.13743
C         30.55073        41.55934        -0.63689
C         28.76951        42.64742        -0.22406
C         30.25654        44.65215        -0.25989
C         29.02097        43.90931         0.22563
C         30.35603        46.03689         0.36215
C         29.20380        46.69959         0.86778
C         30.42331        48.86568         0.81536
C         29.23545        48.12251         1.09700
C         30.41666        50.28146         0.95128
C         29.25168        50.91627         1.41352
C         32.92508        20.40628        -1.42080
C         31.72613        21.07455        -1.31249
C         32.89790        23.17901        -0.89989
C         31.67579        22.47139        -1.05424
C         32.87999        24.58887        -0.63091
C         31.64275        25.28493        -0.54664
C         32.84273        27.39154        -0.07704
C         31.62952        26.69774        -0.29591
C         32.82737        28.82480         0.09933
C         31.59736        29.53223         0.07958
C         32.83139        31.67360         0.13253
C         31.59441        30.96758         0.14188
C         32.83093        33.09914         0.09598
C         31.59625        33.81646         0.05826
C         32.82446        35.94949        -0.03548
C         31.59224        35.25136         0.01618
C         32.81879        37.38070        -0.01597
C         31.58466        38.08984         0.01098
C         32.83414        40.23385         0.02618
C         31.60152        39.51369        -0.03393
C         32.84834        41.66542         0.05960
C         31.64580        42.35080        -0.23663
C         32.82150        44.54713         0.28673
C         31.51440        43.80333         0.06443
C         32.83554        46.01861         0.19157
C         31.60224        46.72930         0.33157
C         32.88950        48.82054         0.43865
C         31.64111        48.14928         0.50630
C         32.91588        50.30230         0.42967
C         31.63657        51.06365         0.63865
C         32.95732        53.14777         0.83681
C         31.77938        52.49001         1.00816
C         35.48297        18.96053        -1.53451
C         35.42177        20.40546        -1.44892
C         34.16416        21.08675        -1.28131
C         35.37780        23.19724        -0.85595
C         34.14660        22.48701        -1.01846
C         35.35718        24.59673        -0.53664
C         34.11161        25.28970        -0.44014
C         35.31724        27.36190         0.10243
C         34.09583        26.68561        -0.13107
C         35.29178        28.77559         0.61972
C         34.04662        29.53541         0.25048
C         35.30921        31.66316         0.25068
C         34.06461        30.94776         0.21993
C         35.31138        33.08167         0.14773
C         34.07466        33.80038         0.07887
C         35.30176        35.90939        -0.14742
C         34.07809        35.22437        -0.03714
C         35.29552        37.38334        -0.46945
C         34.04203        38.10763        -0.05005
C         35.32410        40.24199         0.01161
C         34.06545        39.50716         0.02132
C         35.33507        41.66621         0.11355
C         34.08412        42.40073         0.17510
C         35.31091        44.55629         0.17561
C         34.08722        43.80289         0.17297
C         35.31037        45.93963         0.16444
C         34.07195        46.69157         0.17490
C         35.36352        48.84076         0.14329
C         34.09691        48.11792         0.26908
C         35.39315        50.23510         0.24434
C         34.21706        50.98771         0.80372
C         35.35674        53.16656         0.16664
C         34.19787        52.47711         0.51051
C         35.38470        54.58307        -0.06875
C         37.90774        18.96723        -1.97393
C         36.64525        18.27428        -1.68078
C         37.87793        20.48642        -1.80339
C         36.61735        21.14141        -1.40477
C         37.85239        23.22909        -0.81076
C         36.61748        22.52526        -1.03805
C         37.83256        24.59925        -0.40520
C         36.57747        25.29187        -0.32004
C         37.79306        27.39041         0.19337
C         36.55186        26.68507         0.00092
C         37.78894        28.81747         0.32746
C         36.56514        29.53192         0.35659
C         37.79427        31.65615         0.27382
C         36.55473        30.94299         0.30479
C         37.79385        33.08504         0.17576
C         36.55072        33.79085         0.10336
C         37.78747        35.90772        -0.10657
C         36.54687        35.21311        -0.06048
C         37.79732        37.37799        -0.44105
C         36.54320        38.04481         0.11387
C         37.77212        40.23646        -0.03363
C         36.54508        39.54591        -0.03299
C         37.78205        41.65920         0.01508
C         36.56005        42.35928         0.13616
C         37.82863        44.53897        -0.01308
C         36.59656        43.82515         0.48602
C         37.82836        45.92080        -0.08644
C         36.61400        46.67490         0.40688
C         37.78850        48.79276        -0.35634
C         36.58439        48.11765        -0.02003
C         37.80065        50.19899        -0.39718
C         36.66130        50.93847         0.13627
C         37.83295        53.16149        -0.50091
C         36.66447        52.46442         0.09467
C         37.77220        54.54677        -0.65665
C         36.54378        55.24075        -0.39412
C         40.47302        16.15911        -2.04200
C         39.25865        16.83968        -2.08528
C         40.39504        18.91148        -1.54290
C         39.20455        18.23041        -1.86011
C         40.41304        20.38314        -1.38657
C         39.16345        21.20009        -1.51516
C         40.29085        23.19711        -0.53743
C         39.10490        22.55566        -0.90683
C         40.29896        24.58088        -0.17812
C         39.04761        25.27979        -0.11771
C         40.24618        27.38717         0.39534
C         39.03003        26.69090         0.17554
C         40.26247        28.80048         0.44410
C         39.02739        29.52279         0.36783
C         40.26959        31.65434         0.39108
C         39.02706        30.94602         0.35598
C         40.27102        33.07495         0.26548
C         39.02603        33.78779         0.14509
C         40.24166        35.95239         0.06728
C         39.01906        35.22404         0.02846
C         40.25375        37.38283         0.10801
C         39.04091        38.10527        -0.01776
C         40.25051        40.23321         0.05418
C         39.02595        39.51080         0.00369
C         40.25461        41.65865        -0.04473
C         39.03161        42.37106        -0.06011
C         40.25867        44.47914        -0.41169
C         39.04115        43.79651        -0.18484
C         40.25800        45.90772        -0.54344
C         39.03746        46.62887        -0.39068
C         40.25900        48.71982        -0.73436
C         39.03889        48.05018        -0.53014
C         40.26758        50.15633        -1.06451
C         38.94940        50.94055        -0.89980
C         40.23654        53.03025        -1.12609
C         39.02475        52.40843        -0.81014
C         40.23802        54.47325        -1.40622
C         38.94875        55.27935        -1.18551
C         40.31021        57.33629        -1.18578
C         39.11996        56.72594        -0.96067
C         42.94476        16.14498        -1.75649
C         41.66225        16.82555        -1.70205
C         42.84414        18.89510        -1.01467
C         41.62515        18.21356        -1.39483
C         42.86049        20.25927        -0.72945
C         41.56341        20.96192        -0.63296
C         42.81452        23.12445        -0.17877
C         41.53137        22.42063        -0.31320
C         42.78554        24.53691        -0.01830
C         41.53169        25.23345         0.07699
C         42.75190        27.42173         0.35298
C         41.51852        26.62460         0.65766
C         42.74959        28.79867         0.48992
C         41.50027        29.52055         0.52910
C         42.74499        31.66219         0.51927
C         41.50522        30.94200         0.48897
C         42.73358        33.07920         0.42502
C         41.50619        33.76369         0.25047
C         42.70674        35.91788         0.55915
C         41.54283        35.22329        -0.10325
C         42.70354        37.41230         0.61009
C         41.46464        38.11812         0.25892
C         42.72930        40.23607         0.17432
C         41.47975        39.52137         0.16802
C         42.73247        41.64013        -0.02747
C         41.49911        42.35610        -0.13457
C         42.73620        44.44123        -0.53103
C         41.50590        43.75869        -0.37813
C         42.74078        45.85085        -1.05606
C         41.47855        46.60631        -0.73835
C         42.76153        48.72253        -0.83139
C         41.49615        48.00766        -0.77191
C         42.75320        50.19276        -0.74309
C         41.50698        50.92529        -0.98126
C         42.74836        53.02887        -1.33832
C         41.49546        52.31231        -1.13480
C         42.73112        54.45737        -1.53982
C         41.51870        55.19207        -1.44956
C         42.75490        57.27414        -1.67571
C         41.52355        56.59946        -1.47998
C         44.08634        16.74069        -1.35916
C         45.34987        18.88710        -0.76573
C         44.06798        18.07922        -0.67002
C         45.32067        20.29464        -0.55309
C         44.06482        20.98512        -0.45854
C         45.27490        23.12431        -0.08812
C         44.03872        22.40632        -0.23235
C         45.24789        24.54359         0.09858
C         44.02299        25.23404         0.09871
C         45.18951        27.33693         0.81506
C         44.05041        26.73974        -0.00156
C         45.22614        28.84097         0.67114
C         44.01210        29.53169         0.56542
C         45.21525        31.66832         0.76984
C         43.99852        30.96183         0.61344
C         45.20796        33.11049         0.74244
C         43.98904        33.80414         0.51277
C         45.19968        35.94672         0.63106
C         44.00080        35.21557         0.52872
C         45.19344        37.39472         0.53001
C         43.98603        38.11852         0.49761
C         45.19910        40.22104         0.13463
C         43.96604        39.52400         0.28493
C         45.20195        41.64580        -0.05095
C         43.97268        42.34792        -0.12252
C         45.20013        44.48695        -0.38641
C         43.96394        43.76154        -0.36239
C         45.18286        45.92300        -0.50321
C         44.00501        46.60926        -0.72585
C         45.25353        48.77101        -0.93365
C         43.98367        48.05672        -0.79300
C         45.29045        50.15471        -1.27420
C         44.06892        50.93837        -1.00082
C         45.16642        52.97622        -1.88318
C         43.97378        52.34580        -1.40111
C         45.12621        54.37910        -2.15438
C         43.93610        55.14434        -1.84248
C         43.91849        56.56315        -1.89723
C         47.78210        18.95403        -0.80646
C         46.58740        18.24416        -0.87890
C         47.79312        20.34475        -0.57467
C         46.54623        21.02770        -0.43938
C         47.75417        23.15552        -0.04469
C         46.52302        22.43705        -0.18920
C         47.73853        24.56701         0.17859
C         46.49923        25.27415         0.25561
C         47.71475        27.38101         0.66372
C         46.50326        26.65632         0.52022
C         47.70296        28.81845         0.82862
C         46.45992        29.53346         0.79383
C         47.67845        31.66251         1.09682
C         46.46183        30.96222         0.88114
C         47.57475        33.10907         1.55024
C         46.40529        33.83966         0.93885
C         47.67924        35.97436         0.80306
C         46.42671        35.24194         0.80998
C         47.67997        37.35950         0.45541
C         46.42964        38.08778         0.34584
C         47.63922        40.18185        -0.27073
C         46.40813        39.48043         0.11831
C         47.67603        41.66039        -0.22245
C         46.43523        42.36744        -0.15461
C         47.68198        44.49766        -0.30825
C         46.42805        43.78585        -0.25554
C         47.69984        45.90246        -0.39567
C         46.44042        46.69726        -0.17972
C         47.69405        48.72511        -1.07019
C         46.46582        48.06656        -0.82091
C         47.71869        50.05201        -1.61578
C         46.47648        50.78380        -1.73134
C         47.30754        52.85158        -2.95537
C         46.34809        52.19752        -2.16225
C         47.26602        54.22350        -3.25966
C         46.21617        54.99849        -2.80438
C         50.29067        20.43573        -0.60088
C         49.03284        21.07634        -0.43987
C         50.23323        23.17141         0.10452
C         49.00458        22.46478        -0.13397
C         50.18732        24.55025         0.42277
C         48.96138        25.27302         0.38901
C         50.18218        27.40709         0.81811
C         48.95499        26.68605         0.62319
C         50.16984        28.82654         0.95113
C         48.91971        29.53277         0.94445
C         50.16260        31.65493         1.24519
C         48.91295        30.96470         1.11803
C         50.18389        33.12332         1.40991
C         48.88994        33.88881         1.48145
C         50.14091        35.96816         0.84648
C         48.90271        35.30127         1.02725
C         50.14650        37.36053         0.51546
C         48.91277        38.02868         0.30569
C         50.18279        40.17462        -0.10228
C         48.93807        39.41593        -0.17503
C         50.17056        41.59309        -0.61463
C         48.88847        42.33815        -0.31836
C         50.14847        44.47060        -0.30636
C         48.91150        43.76757        -0.32211
C         50.15794        45.88241        -0.37673
C         48.92068        46.59778        -0.50836
C         50.15808        48.67870        -0.79569
C         48.92629        48.00811        -0.78351
C         50.20581        50.04089        -1.23989
C         49.04538        50.63050        -1.83074
C         50.52736        52.41741        -2.67885
C         49.30030        51.75075        -2.65100
C         51.47399        21.12531        -0.45876
C         52.72623        23.20313         0.03518
C         51.49303        22.49632        -0.08184
C         52.74652        24.49707         0.70830
C         51.39031        25.23480         0.89207
C         52.62497        27.40073         1.13153
C         51.41812        26.70976         0.94911
C         52.63623        28.82514         1.15419
C         51.40064        29.53242         1.07895
C         52.64171        31.68470         1.12331
C         51.39507        30.96857         1.15896
C         52.62941        33.11730         1.01646
C         51.41918        33.84698         1.06219
C         52.61597        35.95089         0.62654
C         51.39742        35.25277         0.88421
C         52.61870        37.37217         0.40115
C         51.38103        38.07323         0.35784
C         52.62512        40.21379         0.02151
C         51.37545        39.49441         0.11309
C         52.62712        41.63763        -0.08399
C         51.40913        42.35669        -0.22903
C         52.63259        44.48044        -0.03204
C         51.40207        43.75466        -0.19486
C         52.63861        45.90780        -0.01378
C         51.39555        46.59716        -0.27240
C         52.57900        48.73631        -0.25178
C         51.37839        47.99236        -0.46676
C         52.57451        50.14329        -0.48851
C         51.44760        50.73703        -1.20381
C         51.57946        51.95631        -1.88664
C         55.12741        23.44771        -0.35253
C         53.95653        22.73325        -0.49534
C         55.15985        24.73586         0.28240
C         53.96562        25.29972         0.72009
C         55.14685        27.44920         1.21495
C         53.90213        26.63535         1.42384
C         55.12373        28.85648         1.34251
C         53.87350        29.55551         1.25560
C         55.14261        31.66984         1.01813
C         53.88402        30.97326         1.14847
C         55.06672        33.07629         0.67763
C         53.85052        33.81686         0.79424
C         55.06986        35.93311         0.34029
C         53.84489        35.22987         0.58098
C         55.08254        37.35141         0.14131
C         53.83949        38.06772         0.16992
C         55.06023        40.20614        -0.18871
C         53.84299        39.49810         0.00505
C         55.08390        41.61064        -0.14063
C         53.86173        42.34618        -0.03792
C         55.10194        44.49638         0.09385
C         53.86539        43.77362         0.01539
C         55.09773        45.90347         0.33375
C         53.84353        46.62670         0.26497
C         54.65955        48.95087         0.91336
C         53.72645        48.08307         0.30011
C         54.63418        50.33772         0.76028
C         53.63516        50.92865        -0.01680
C         57.66952        24.76948         0.45998
C         56.41793        25.42113         0.55962
C         57.58659        27.44272         1.37662
C         56.37726        26.77045         1.01840
C         57.53601        28.79796         1.82208
C         56.34435        29.58754         1.53949
C         57.63800        31.75883         1.49739
C         56.37308        30.99663         1.33453
C         57.92075        32.88213         0.69076
C         56.15836        33.78893         0.14516
C         57.54629        35.87589         0.07339
C         56.27553        35.20269         0.18537
C         57.53569        37.29527        -0.14375
C         56.29999        38.00545        -0.14839
C         57.56613        40.18479        -0.41548
C         56.27590        39.43798        -0.62402
C         57.55802        41.61005        -0.38167
C         56.32550        42.34224        -0.23192
C         57.58003        44.45203        -0.16531
C         56.33046        43.74804        -0.08462
C         57.60514        45.85444         0.10804
C         56.40912        46.54311         0.50309
C         57.85397        48.46684         1.12550
C         56.61668        47.79720         1.10947
C         58.83040        25.37967         0.90266
C         59.94453        27.28268         2.04369
C         58.80754        26.70537         1.42403
C         59.83513        28.51490         2.67349
C         58.64276        29.25299         2.56783
C         59.62719        32.46620         2.78140
C         58.59420        31.55275         2.52182
C         59.73105        33.65780         2.06024
C         58.85657        33.89535         0.98663
C         59.98019        35.93510         0.14642
C         58.79174        35.21479         0.32676
C         59.97097        37.28454        -0.21575
C         58.77315        38.00554        -0.30337
C         59.99280        40.19545        -0.48645
C         58.77397        39.46756        -0.42642
C         59.99757        41.57245        -0.53788
C         58.79169        42.31601        -0.46178
C         60.00530        44.49353        -0.55720
C         58.79185        43.75538        -0.41408
C         60.03753        45.84238        -0.32028
C         58.86240        46.53490         0.09769
C         58.96337        47.86711         0.55975
O         57.17035        33.04919        -0.48622
O         58.54857        30.42353         3.34120
O         36.99256        51.77507         1.36466
O         41.27680        21.37439         0.74429
O         48.33559        52.14409        -3.58533
O         49.65853        33.65082         2.71458
O         42.48455        36.57766         1.83461
O         37.82442        19.87216        -3.12600
O         39.41854        50.46187        -2.21388
O         39.34595        54.83935        -2.52232
O         52.03289        24.53941         2.01349
O         29.51546        42.19736        -1.32785
O         48.24191        39.60943        -1.49918
O         32.20182        50.83373        -0.72123
O         55.58964        48.42719         1.82058
O         40.12792        21.12871        -2.62452
O         31.98575        44.06320         1.41772
O         27.82360        43.79789         2.40733
O         43.56336        50.71132         0.36756
O         24.35444        42.30327        -0.03050
O         43.92551        17.76677         0.77015
H         43.80068        18.61886         1.24106
O         30.19833        44.84384        -1.69288
H         29.93845        43.97994        -2.08904
O         46.39657        46.94447         1.27424
H         45.61675        47.51380         1.44983
O         41.57586        26.42950         2.13567
H         42.52220        26.31195         2.37783
O         34.33556        50.86723         2.26073
H         35.24531        51.17027         2.48974
O         44.32971        27.05417        -1.39951
H         43.62524        26.65066        -1.94826
O         29.06454        30.84135         1.96146
H         28.24920        30.34577         2.19133
O         41.86255        35.28839        -1.54909
H         41.22567        34.70852        -2.01829
O         36.70553        43.88239         1.96628
H         35.91335        43.43395         2.33424
O         50.21577        41.46871        -2.08528
H         49.49178        40.83661        -2.32200
O         36.75948        46.71429         1.87143
H         36.81195        45.77112         2.17311
O         47.21169        33.01213         2.96629
H         48.06341        33.02367         3.46626
O         42.73893        45.71655        -2.53502
H         43.53526        45.19765        -2.77864
O         36.55285        37.77760         1.53998
H         35.78345        38.23231         1.94267
O         44.86821        27.05222         2.21371
H         45.56782        27.45198         2.77250
O         53.87680        26.34268         2.86952
H         53.16313        25.66779         2.99601
O         35.22836        28.63452         2.09913
H         35.21829        29.54064         2.47556
O         56.13980        39.33364        -2.10080
H         56.93679        38.86608        -2.43122
O         37.79698        37.48361        -1.89503
H         38.64964        37.12510        -2.21833
O         35.31344        37.51102        -1.91945
H         34.50333        37.08128        -2.26413
H         22.04370        26.87730        -0.71225
H         22.00868        29.31560        -0.42932
H         21.99515        31.19522        -0.20356
H         21.98995        33.60449         0.06041
H         22.00626        35.45450         0.54343
H         22.04024        37.85855         0.93717
H         22.29879        39.53395         1.98009
H         22.33438        41.88046         2.58393
H         22.25329        43.96540         2.55977
H         22.43075        46.37014         3.12212
H         25.40762        23.53209        -1.03273
H         23.28678        24.76513        -0.93921
H         25.71506        49.74823         2.61854
H         23.69108        48.46762         3.13593
H         27.05155        22.60867        -1.15983
H         27.23512        50.73858         2.09978
H         29.15639        21.41981        -1.28625
H         29.22872        52.00859         1.52578
H         32.90928        19.33085        -1.64058
H         30.79748        20.50351        -1.44032
H         32.97965        54.23378         1.01198
H         30.89350        53.05462         1.33139
H         34.56178        18.38802        -1.35932
H         34.45465        55.16027         0.02373
H         36.64481        17.17969        -1.57743
H         36.50792        56.32790        -0.54813
H         40.50554        15.08620        -2.28010
H         38.34452        16.29099        -2.35028
H         40.39647        58.42573        -1.05688
H         38.26337        57.31904        -0.60960
H         42.96707        15.12864        -2.17881
H         42.77093        58.37345        -1.68250
H         45.03297        16.18719        -1.43151
H         44.84865        57.11631        -2.08444
H         48.72293        18.39784        -0.90515
H         46.63678        17.15639        -1.01932
H         48.07043        54.65891        -3.86610
H         46.19538        56.07094        -3.03554
H         50.33676        19.36906        -0.85536
H         50.65551        53.28922        -3.33310
H         52.42234        20.58846        -0.59556
H         52.53751        52.49332        -1.88815
H         56.05629        23.02657        -0.75966
H         53.98597        21.76974        -1.02274
H         55.39501        50.95108         1.25968
H         53.63357        52.01678        -0.16575
H         57.72073        23.73659         0.08930
H         57.91735        49.45801         1.59275
H         59.78201        24.82929         0.88717
H         60.88289        26.71274         2.09543
H         60.67087        28.92546         3.25496
H         60.31383        32.26140         3.61250
H         60.47995        34.40961         2.34421
H         60.94417        35.43278         0.30847
H         60.93668        37.78810        -0.35206
H         60.95454        39.66699        -0.50876
H         60.96349        42.09014        -0.59964
H         60.93316        43.97857        -0.83750
H         60.98260        46.39931        -0.39440
H         59.93601        48.37821         0.54268
