         667
 CSIRO Nanostructure Databank - Neutral Graphene Oxide Data Set
C          5.84639        31.83580         0.33772
C          5.87374        33.20026         0.31027
C          8.24923        27.50005         0.39017
C          8.23803        28.87143         0.27177
C          7.03226        29.66478         0.34547
C          8.37262        31.76559         0.37055
C          7.04918        31.04043         0.29577
C          8.32820        33.23286         0.05768
C          7.11331        33.94896         0.18089
C          8.35036        36.08084         0.07232
C          7.13030        35.35257         0.18625
C          8.37015        37.48942         0.06062
C         10.74079        23.16904         0.47739
C         10.71735        24.58569         0.40942
C          9.49908        25.35070         0.43235
C         10.71787        27.46809         0.15676
C          9.47422        26.73659         0.28330
C         10.76579        28.84593        -0.04404
C          9.47817        29.55977        -0.17702
C         10.79819        31.76873        -0.64590
C          9.47652        31.03531        -0.37672
C         10.77473        33.20889        -0.23425
C          9.57169        33.91246        -0.08006
C         10.78722        36.05858        -0.31936
C          9.58679        35.36436        -0.08390
C         10.79755        37.46545        -0.34186
C          9.57554        38.20070        -0.13898
C         10.78735        40.31359        -0.49945
C          9.60037        39.61635        -0.19172
C         10.81772        41.73230        -0.54738
C         13.24156        18.82735         0.76983
C         13.19308        20.30501         1.10081
C         11.89807        20.94281         0.56480
C         13.17882        23.15523         0.39749
C         11.94106        22.45880         0.50737
C         13.17067        24.56554         0.27888
C         11.96221        25.26689         0.33274
C         13.26036        27.48754         0.23863
C         11.95746        26.73723         0.41581
C         13.22589        28.90717        -0.11997
C         12.00212        29.57791        -0.09599
C         13.26621        31.77086        -0.37288
C         11.99905        31.08269         0.06403
C         13.31910        33.15070        -0.38255
C         12.07855        33.93963         0.00050
C         13.31152        36.05242        -0.64337
C         12.02044        35.27856        -0.73795
C         13.28165        37.42926        -0.70324
C         12.02038        38.17328        -0.61421
C         13.19483        40.27235        -1.26517
C         11.99104        39.55600        -0.73589
C         13.22171        41.74682        -0.94224
C         12.02692        42.46466        -0.75115
C         13.21468        44.66280        -0.83810
C         12.05037        43.90401        -0.66376
C         13.28476        46.04652        -0.54717
C         15.82405        14.65365         0.19310
C         15.73022        16.07478         0.45163
C         14.51828        16.73553         0.49279
C         15.64497        18.84659         1.34215
C         14.41673        18.14074         0.81509
C         15.72366        20.32000         0.96529
C         14.44899        20.96905         0.47526
C         15.63380        23.17960         0.69524
C         14.44971        22.47337         0.54895
C         15.69291        24.59141         0.45122
C         14.45955        25.23954        -0.12434
C         15.67181        27.42148        -0.13750
C         14.48956        26.73347         0.01275
C         15.66828        28.86154        -0.31975
C         14.47571        29.56287        -0.38775
C         15.71135        31.70765        -0.90746
C         14.39979        30.97140        -0.94949
C         15.76414        33.09783        -0.84607
C         14.53688        33.85410        -0.66443
C         15.77770        35.97455        -0.77172
C         14.56747        35.29956        -0.70141
C         15.84126        37.47171        -0.60400
C         14.52116        38.18618        -0.81390
C         15.72358        40.29874        -1.29946
C         14.48604        39.53622        -0.98709
C         15.75535        41.74652        -0.86080
C         14.46886        42.46681        -1.23466
C         15.75967        44.71192        -1.21006
C         14.45001        43.97124        -1.27474
C         15.77516        46.08462        -0.64171
C         14.51027        46.76874        -0.44641
C         15.75176        48.79461         0.27091
C         14.53545        48.11425        -0.04175
C         15.76163        50.15602         0.59384
C         18.38022        10.45257        -0.11137
C         18.28679        11.88320        -0.10993
C         17.08766        12.53084         0.07777
C         18.27957        14.66526         0.66027
C         17.01041        13.95918         0.23635
C         18.25309        16.13753         0.27716
C         16.96695        16.82818         0.66738
C         18.16389        18.89036         1.36954
C         16.93035        18.14013         1.02210
C         18.17332        20.36792         1.29867
C         16.88989        21.02307         1.10240
C         18.15797        23.21624         0.96736
C         16.85638        22.52235         1.28193
C         18.15027        24.60473         0.72708
C         16.89006        25.29664         0.46713
C         18.11667        27.37365        -0.03969
C         16.92965        26.69501         0.04911
C         18.16776        28.68064        -0.79678
C         16.99108        29.60026        -0.37818
C         18.22602        31.63919        -1.21964
C         16.92311        30.88450        -1.23347
C         18.21622        33.04818        -1.27006
C         17.03166        33.77682        -1.01116
C         18.15013        35.94016        -1.66717
C         17.10889        35.26035        -0.73558
C         18.21316        37.44186        -1.47813
C         17.03237        38.11232        -1.30831
C         18.28560        40.31409        -1.48173
C         17.01035        39.57271        -1.48667
C         18.20721        41.75492        -1.43440
C         17.02366        42.44023        -1.28096
C         18.29950        44.55263        -0.85260
C         17.03022        43.92335        -1.28212
C         18.22835        45.89728        -0.24223
C         16.97225        46.69752        -0.33271
C         18.22492        48.71729         0.35147
C         17.01036        48.06657         0.15308
C         18.27628        50.00833         1.03198
C         16.93907        50.78782         1.17047
C         18.29718        52.96566         1.58842
C         16.94022        52.30035         1.38046
C         18.33769        54.31118         1.77414
C         20.88891         6.10881         0.06421
C         20.82135         7.55776        -0.42562
C         19.52545         8.28027        -0.10404
C         20.83286        10.51389        -0.35860
C         19.57221         9.78707        -0.24191
C         20.82266        11.92195        -0.28998
C         19.52467        12.67049        -0.46290
C         20.75936        14.75651         0.15442
C         19.55964        14.03836         0.14704
C         20.72452        16.18544         0.51474
C         19.52985        16.79963         0.74908
C         20.69046        18.97840         1.28028
C         19.46798        18.17826         1.27963
C         20.65663        20.36521         1.30875
C         19.37341        21.07229         1.29033
C         20.59864        23.25783         1.22068
C         19.38219        22.53170         1.16300
C         20.60127        24.66348         0.99887
C         19.37412        25.31524         0.72535
C         20.62206        27.54056         0.42344
C         19.33921        26.77381         0.51285
C         20.64169        28.87091        -0.25694
C         19.47373        29.45609        -0.68071
C         20.79423        31.64360        -1.04881
C         19.45872        30.84094        -1.22339
C         20.75031        33.11429        -1.19987
C         19.48666        33.76302        -1.72681
C         20.64277        35.99230        -1.48865
C         19.48308        35.26785        -1.51130
C         20.68668        37.45162        -1.55277
C         19.48078        38.15750        -1.59584
C         20.75665        40.30473        -1.71223
C         19.48939        39.61149        -1.60651
C         20.73599        41.78058        -1.91842
C         19.44762        42.53126        -1.69949
C         20.77177        44.52249        -0.82252
C         19.46785        43.92918        -1.17773
C         20.81728        45.86801        -0.15622
C         19.51699        46.59951         0.06111
C         20.78750        48.75343         0.39013
C         19.49598        48.09518        -0.18374
C         20.70882        50.28080         0.23011
C         19.57832        50.77363         1.11948
C         20.82670        53.00628         1.26737
C         19.57733        52.22481         1.47358
C         20.84022        54.34706         1.71545
C         19.58187        55.04014         1.98188
C         20.78032        57.07606         2.72858
C         19.55899        56.37180         2.31848
C         20.86473        58.52426         2.81435
C         23.42684         3.41528        -0.94326
C         22.18338         4.09045        -0.68801
C         23.42000         6.16542        -0.26307
C         22.15976         5.40724        -0.33344
C         23.39084         7.66697        -0.38819
C         22.07449         8.34203        -0.63340
C         23.28463        10.53454        -0.49727
C         22.06961         9.82099        -0.49615
C         23.26692        11.93282        -0.32474
C         22.04044        12.66252        -0.23441
C         23.26203        14.93881        -0.25058
C         22.00635        14.09488        -0.07064
C         23.26047        16.24858         0.53021
C         21.98299        17.03709         0.43235
C         23.18199        18.99852         1.47555
C         21.93090        18.17793         1.47713
C         23.14475        20.38040         1.47755
C         21.89587        21.08048         1.39579
C         23.16683        23.30639         1.59605
C         21.85212        22.53305         1.56117
C         23.10955        24.78939         1.38307
C         21.84013        25.43846         0.98966
C         23.11309        27.49922         0.44181
C         21.87027        26.77562         0.61939
C         23.07828        28.92066         0.21206
C         21.90510        29.60339        -0.16150
C         23.03586        31.84093         0.07685
C         21.89873        31.00947        -0.36221
C         23.10837        33.26506        -0.45776
C         21.90193        33.82877        -1.11164
C         23.21405        35.98960        -1.60322
C         21.92417        35.24742        -1.54199
C         23.17949        37.46964        -1.51936
C         21.97094        38.15406        -1.55538
C         23.23054        40.34870        -1.53373
C         21.96504        39.61650        -1.63052
C         23.24631        41.74417        -1.45874
C         22.06313        42.53969        -1.94668
C         23.19696        44.60787        -1.16456
C         22.01544        43.92165        -1.33319
C         23.16229        46.12340        -1.12238
C         22.13938        46.65935        -0.09897
C         23.13692        48.97721        -0.56258
C         21.97294        48.14674        -0.28419
C         23.16742        50.38543        -0.08825
C         22.03931        50.99168         0.39244
C         23.22144        53.14589         0.76635
C         22.02019        52.39242         0.81743
C         23.27267        54.44070         1.33816
C         22.07541        55.02474         1.82395
C         23.35922        57.11498         2.43997
C         22.12498        56.32459         2.49950
C         23.34515        58.46867         2.82790
C         22.09256        59.17606         2.99830
C         23.35746        61.23959         3.40786
C         22.14064        60.57774         3.26211
C         24.62901         4.06556        -0.86349
C         25.87331         6.18571        -0.54828
C         24.69040         5.47146        -0.57739
C         25.87751         7.61703        -0.42840
C         24.63400         8.32748        -0.95723
C         25.64156        10.36778         0.30454
C         24.65710         9.90149        -0.81336
C         25.73587        11.87221         0.29144
C         24.56139        12.64039        -0.18841
C         25.68082        14.76134         0.66616
C         24.55379        14.14185        -0.05446
C         25.66651        16.10591         1.01308
C         24.39980        16.83599         0.98915
C         25.69335        18.95279         1.28460
C         24.44248        18.20083         1.68647
C         25.59421        20.42313         0.94008
C         24.46207        21.12162         1.71133
C         25.63382        23.28634         1.13246
C         24.43491        22.60399         1.38251
C         25.66664        24.70124         0.92393
C         24.41764        25.48938         1.04531
C         25.58125        27.47636        -0.04742
C         24.33575        26.83373         0.48970
C         25.60637        28.96524         0.21902
C         24.32731        29.63542         0.66971
C         25.61476        31.86644         0.17642
C         24.32128        31.15073         0.45542
C         25.58999        33.23506        -0.39730
C         24.42627        33.88211        -0.71440
C         25.57229        36.06993        -0.60369
C         24.53962        35.25722        -1.38971
C         25.70315        37.48843        -1.10796
C         24.50733        38.16746        -1.74514
C         25.67007        40.32263        -1.21496
C         24.47858        39.64288        -1.44056
C         25.68886        41.75586        -1.02144
C         24.44079        42.47390        -1.16247
C         25.59131        44.59864        -0.54756
C         24.42294        43.87876        -1.05716
C         25.61730        46.08001        -0.56159
C         24.49361        46.78666        -0.82408
C         25.73498        48.98296        -0.40064
C         24.48757        48.27073        -0.78747
C         25.72263        50.38198        -0.21750
C         24.42672        51.16278        -0.45543
C         25.75622        53.23011         0.49575
C         24.43903        52.57993         0.13996
C         25.75190        54.49178         1.25661
C         24.54193        55.13183         1.54038
C         25.81459        57.14653         2.26268
C         24.56273        56.46264         2.07796
C         25.80115        58.49387         2.69630
C         24.59041        59.18006         2.92714
C         24.56917        60.56445         3.25312
C         27.00640         8.29533        -0.02147
C         28.14799        10.39369         0.55170
C         26.99487         9.70202         0.24071
C         28.15468        11.80986         0.80303
C         26.88629        12.51414         0.65971
C         28.16226        14.68968         1.27978
C         26.84272        13.94965         0.99467
C         28.13344        16.14601         1.13598
C         26.90257        16.81742         1.20265
C         28.08260        19.01419         0.64244
C         26.85912        18.27149         1.12070
C         28.18834        20.40392         1.27718
C         26.89805        21.17875         1.10059
C         28.23510        23.24259         1.38240
C         26.89883        22.53785         1.11878
C         28.21353        24.81771         1.13293
C         26.87380        25.40332         0.69227
C         28.06518        27.51501         0.18940
C         26.85297        26.77156         0.35887
C         28.05575        28.89488         0.06603
C         26.81860        29.65320         0.16177
C         28.09827        31.76869        -0.09020
C         26.86102        31.08154         0.05761
C         28.12405        33.20755        -0.30830
C         26.87654        33.92818        -0.51192
C         28.15349        36.02243        -0.55384
C         26.87412        35.29721        -0.63093
C         28.16126        37.50431        -0.67909
C         26.88397        38.16964        -1.01906
C         28.14432        40.28144        -1.07724
C         26.93732        39.61407        -1.16297
C         28.20464        41.73241        -0.70619
C         26.88515        42.43082        -0.83656
C         28.16334        44.62523        -0.63035
C         26.90419        43.85106        -0.49083
C         28.13490        46.01969        -0.43465
C         26.86849        46.73912        -0.00790
C         28.17369        48.89611        -0.11894
C         26.92343        48.23023        -0.26107
C         28.17039        50.29746         0.13519
C         26.94752        51.04478         0.11962
C         28.20790        53.04899         0.86854
C         26.98904        52.42617         0.46305
C         28.21162        54.39975         1.31923
C         27.01361        55.12079         1.54565
C         27.02305        56.44850         2.02593
C         29.34572        12.51103         0.97491
C         30.59020        14.65987         0.93020
C         29.41569        13.94146         1.06443
C         30.60936        16.10042         0.89433
C         29.37190        16.84407         0.94194
C         30.59132        18.94204         0.62416
C         29.37748        18.24426         0.77486
C         30.59596        20.37480         0.45624
C         29.37636        21.13170         0.67974
C         30.51206        23.21293         0.11266
C         29.35298        22.50078         0.64422
C         30.54327        24.68402         0.16081
C         29.38076        25.35606         0.32127
C         30.60796        27.52768         0.18058
C         29.33846        26.78735        -0.17181
C         30.59071        28.91806         0.20270
C         29.33872        29.59896        -0.29746
C         30.54290        31.81362         0.37382
C         29.30553        31.06676        -0.02939
C         30.58789        33.20309        -0.20415
C         29.35378        33.85753        -0.45456
C         30.65329        36.00012        -0.85174
C         29.36197        35.25223        -1.02279
C         30.65668        37.43600        -1.02059
C         29.42950        38.19096        -0.99249
C         30.63187        40.34393        -1.21704
C         29.42303        39.59708        -1.12108
C         30.66475        41.77971        -1.28171
C         29.32550        42.49242        -1.41643
C         30.54780        44.66657        -1.14121
C         29.36202        43.94048        -0.96880
C         30.44613        46.06303        -1.10290
C         29.32806        46.76603        -0.60071
C         30.64358        48.81237         0.15019
C         29.41040        48.16990        -0.23197
C         30.59566        50.16539         0.53416
C         29.40681        50.93814         0.48149
C         29.40934        52.30074         0.84128
C         31.81064        16.79904         0.74463
C         33.05372        18.91765         0.49868
C         31.83726        18.21632         0.62450
C         33.07144        20.32565         0.33472
C         31.81712        21.03099         0.26404
C         33.07776        23.23314         0.06269
C         31.82741        22.45732        -0.05953
C         33.06775        24.61525         0.01736
C         31.80153        25.38393        -0.33076
C         33.04493        27.49294         0.34541
C         31.83147        26.81462         0.17400
C         33.05491        28.92939         0.41986
C         31.81749        29.64424         0.29524
C         33.04550        31.76393         0.13043
C         31.83092        31.05717         0.20663
C         33.05998        33.18774        -0.10391
C         31.81361        33.87528        -0.32053
C         33.10185        35.95683        -0.73658
C         31.83726        35.29125        -0.63592
C         33.10527        37.33222        -1.25084
C         31.85973        38.11043        -1.22177
C         33.14227        40.30425        -1.55320
C         31.91782        39.60129        -0.98815
C         33.19536        41.83686        -1.47813
C         31.84483        42.50605        -1.35526
C         33.07309        44.58078        -0.56390
C         31.89565        44.02848        -1.45849
C         33.12891        45.91777        -0.03837
C         32.25375        46.97160        -0.36790
C         31.89346        48.10066         0.36558
C         34.27813        21.05233         0.26467
C         35.51662        23.15826         0.41254
C         34.31913        22.48389         0.24848
C         35.53597        24.62452         0.72239
C         34.27571        25.35133         0.29270
C         35.54292        27.43788         0.69445
C         34.27511        26.73283         0.39294
C         35.53585        28.94741         0.71868
C         34.26689        29.65712         0.47567
C         35.52497        31.77925         0.23009
C         34.28524        31.05595         0.26955
C         35.52717        33.17571         0.00674
C         34.28902        33.87915        -0.18549
C         35.57191        36.00340        -0.53327
C         34.31098        35.28789        -0.50569
C         35.62200        37.38611        -0.77962
C         34.43952        38.06864        -1.30131
C         35.63612        40.30905        -0.93994
C         34.43648        39.56982        -1.43625
C         35.50060        41.60942        -0.50389
C         34.13875        42.26900        -0.33962
C         34.14124        43.76613        -0.24153
C         36.78195        25.35438         0.28482
C         38.00545        27.50249         0.25640
C         36.82060        26.73656         0.38275
C         38.03853        28.92490         0.40190
C         36.79643        29.67156         0.51456
C         38.00626        31.80323         0.34489
C         36.77663        31.06929         0.37160
C         38.00806        33.18154         0.12633
C         36.77175        33.89538        -0.05265
C         38.03705        36.01669        -0.25957
C         36.78964        35.29095        -0.26500
C         38.04493        37.40575        -0.40373
C         36.84504        38.14076        -0.64960
C         36.84142        39.54499        -0.75218
C         39.24239        29.62700         0.37257
C         40.51502        31.81381         0.31114
C         39.27313        31.08290         0.74154
C         40.49937        33.13612         0.05307
C         39.26164        33.90602         0.03706
C         39.26169        35.27400        -0.12574
O          9.13507        30.20025        -1.50858
O         29.33152        26.79006        -1.61487
O         14.37068        43.18061        -2.50602
O         19.82275        27.57581         1.67279
O         23.85475        25.47506         2.42434
O         33.81659        39.86986        -2.75641
O         30.96526        22.76092        -1.20896
O         12.69358        27.23840         1.59500
O         18.75729        46.04198         1.14666
O         20.39419        31.01747        -2.32913
O         26.11957        44.09126         0.74989
O         17.51918        50.04392         2.27636
O         19.87761        51.15886         2.47480
O         22.47872        22.93702         2.84968
O         31.52655        46.80619        -1.56730
O         28.23749        36.83341         0.66662
O         21.30163         7.80648        -1.77660
O         18.76428        18.31704         2.61012
O         25.07222        10.45371        -2.01929
O         23.76537        48.84106        -1.90699
O         24.95527        13.51667        -1.32511
O         22.76204        32.97273         0.95536
O         19.92181        42.25060        -3.06071
O         16.49246        44.59905        -2.48340
O         35.54160        28.13851         1.98261
O         16.16168        40.03786        -2.66583
O         27.33299        14.18410         2.36402
O         33.89761        37.42769        -2.49670
O         21.49182        56.36508         3.80850
O         20.90106        44.68067         0.68334
O         25.08495        53.48322        -0.82463
O         28.51584        23.01292         2.75090
O         25.02008        31.81763         1.54447
O         22.58492        35.45529        -2.85594
O         23.51165         7.07890         0.92513
O         25.50866        27.33767        -1.52101
H         26.42523        27.41067        -1.87061
O         28.98985        42.51781        -2.82623
H         29.71056        42.98296        -3.30261
O         25.01715         9.97818         1.56093
H         25.68447        10.05546         2.27489
O         39.30179        31.09516         2.22485
H         38.50130        30.61730         2.53261
O         24.60389         8.05930        -2.37068
H         24.87283         8.93114        -2.78625
O         13.05326        40.26528        -2.73486
H         13.87832        40.63975        -3.11813
O         22.66781        46.46279         1.24443
H         22.35546        45.57151         1.53797
O         16.16682        37.71264         0.81626
H         16.86463        37.04940         1.05506
O         28.42355        20.28304         2.69189
H         28.46937        21.22737         3.02464
O         19.47430        33.59398        -3.19065
H         20.34933        33.88077        -3.53234
O         16.69939        22.70098         2.73786
H         17.53036        22.40516         3.16727
O         33.82825        42.33366        -2.68515
H         34.07162        41.53392        -3.22102
O         18.29116        16.16816        -1.17823
H         18.30432        17.10261        -1.47164
O         29.16002        35.12021        -2.47166
H         29.90046        34.58811        -2.83255
O         31.72742        25.50897        -1.77440
H         30.83889        25.94138        -1.96102
O         20.83434        48.48135         1.80833
H         21.45166        47.72568         1.96523
O         16.28221        52.92838         0.26704
H         16.86950        52.88577        -0.51509
O         17.70320        35.73794        -3.03296
H         18.17691        34.95133        -3.39929
O         21.82085        17.51235         2.78776
H         20.94539        17.73089         3.17785
O         27.87380        19.26802        -0.79059
H         27.97791        18.41821        -1.26865
O         33.58372        41.78104         0.91432
H         34.17606        42.06840         1.63952
O         30.38658        32.00099         1.83983
H         31.16103        32.51816         2.14947
O         35.55574        24.68817         2.20400
H         35.48444        25.63527         2.45793
O         19.49522        48.18681        -1.62739
H         19.56736        49.14263        -1.86538
O         28.41427        25.44506         2.42505
H         28.52033        24.67488         3.05962
O         11.06556        31.74223        -2.05890
H         10.49893        31.03346        -2.44781
O         20.29140        50.63523        -1.12958
H         21.09229        50.64366        -1.69967
O         24.75368        21.02989         3.12161
H         24.10333        21.59376         3.59634
O         16.75491        30.47571        -2.66377
H         16.97439        31.26288        -3.20981
O         32.19135        44.39116        -2.82317
H         32.97489        43.85061        -3.09689
O         29.41409        29.46375        -1.76548
H         29.42010        28.45924        -1.93383
O         25.11526        35.08070        -2.70739
H         24.37987        34.80523        -3.30346
O         24.33724        29.41406         2.11732
H         24.81111        30.18325         2.51581
O         13.21699        20.50240         2.52330
H         13.96931        19.97789         2.89337
O         23.21983        15.34799        -1.66115
H         23.76034        14.67407        -2.14789
O         26.77547        46.62306         1.44788
H         26.58724        45.66878         1.63406
O         19.40399        12.90615        -1.92030
H         20.17223        13.45168        -2.19500
O         18.48380         7.74607        -0.94793
H         18.77018         7.88501        -1.87662
O         17.28646        30.06608         0.96184
H         17.46089        29.28577         1.53135
O         14.06292        30.76538        -2.37037
H         14.88406        30.42683        -2.80362
O         22.66300        46.53605        -2.41291
H         23.36176        46.39825        -3.08478
O         18.33818        14.60016         2.11312
H         18.25310        13.66138         2.38081
O         12.13108        34.20807         1.42489
H         12.02204        33.33587         1.87458
O         19.75968         5.36935        -0.39083
H         19.03151         6.00270        -0.59992
O         21.95195        17.66478        -0.87403
H         22.31539        17.00862        -1.51751
O         11.84468        34.95130        -2.14395
H         11.85518        35.78474        -2.65933
O         17.65470        35.42054         0.62732
H         17.17937        34.79271         1.21324
O         11.62628        20.44604        -0.75493
H         12.45935        20.53285        -1.27453
O         15.50285        18.85107         2.80889
H         16.40038        18.93611         3.19937
O         24.31604        51.33333        -1.89662
H         24.81228        52.15862        -2.11370
O         24.53758        17.92426         3.11015
H         23.64448        17.62610         3.40470
O         14.37543        20.65660        -0.96205
H         15.02177        21.22649        -1.43073
O         25.12403        36.16028         0.77438
H         25.89059        36.45247         1.31481
O         32.15436        39.65393         0.47401
H         31.28711        39.55741         0.92299
O         25.23976        20.48154        -0.47276
H         26.02410        20.13972        -0.96679
O         22.38779        42.76837        -3.35770
H         21.52604        42.84277        -3.83341
O         24.73443        38.03334        -3.19264
H         24.90537        37.07725        -3.36749
O          8.80266        31.68117         1.77576
H          8.15378        32.17931         2.31647
O         15.73068        41.75525         0.60105
H         16.46298        41.19516         0.93528
O         18.05477        28.26580        -2.18007
H         17.80661        29.05592        -2.72129
O         14.54507        24.98487        -1.58334
H         15.36267        25.42044        -1.90908
O         28.55845        41.77140         0.71457
H         27.77693        41.48502         1.23276
O         11.80446        31.34499         1.49184
H         12.31598        30.68021         2.00109
H          4.88105        31.31023         0.39371
H          4.93296        33.76749         0.36122
H          7.31707        26.96198         0.62052
H          6.06802        29.13747         0.42050
H          6.18549        35.90618         0.29206
H          7.42770        38.04556         0.17120
H          9.78916        22.61924         0.52794
H          8.54869        24.81229         0.56628
H          8.67095        40.17800        -0.01667
H          9.88384        42.28712        -0.37338
H         12.31742        18.32339         0.44663
H         11.04530        20.62545         1.21665
H         11.12005        44.41854        -0.37912
H         12.35415        46.57080        -0.28031
H         14.89262        14.11308        -0.03767
H         13.59064        16.18609         0.27058
H         13.58336        48.64667         0.10293
H         14.86714        50.77042         0.41469
H         17.45976         9.86933         0.04424
H         16.15798        11.94193         0.13596
H         16.30270        52.51515         2.27743
H         17.39689        54.88044         1.82272
H         20.86815         6.15841         1.20221
H         19.23434         8.02943         0.95274
H         18.59962        56.90929         2.36464
H         19.94285        59.11865         2.72496
H         23.39948         2.34594        -1.19670
H         21.24063         3.53120        -0.75746
H         23.36321        62.31430         3.63829
H         21.19702        61.12979         3.37774
H         25.56770         3.52626        -1.05728
H         26.83457         5.65090        -0.60657
H         26.75521        59.02693         2.82200
H         25.51984        61.10721         3.35385
H         27.93275         7.73256         0.17841
H         29.11093         9.85986         0.55074
H         29.17382        54.87406         1.56121
H         27.98385        56.95320         2.20306
H         30.29325        11.95170         0.94170
H         31.54299        14.12537         0.79878
H         31.52306        50.65492         0.86639
H         30.35087        52.77898         1.14864
H         32.75958        16.24353         0.70802
H         34.00484        18.36544         0.53473
H         33.82739        46.08527         0.79790
H         32.54148        48.45330         1.18212
H         35.23172        20.50494         0.32857
H         36.45214        22.58905         0.52869
H         36.37304        42.10802        -0.04987
H         35.01121        44.22976         0.25605
H         37.70363        24.78856         0.07923
H         38.95685        26.97625         0.08651
H         39.00139        37.94794        -0.36034
H         37.77499        40.08850        -0.54115
H         40.19186        29.07644         0.28929
H         41.46398        31.25672         0.30754
H         41.43343        33.66636        -0.18821
H         40.21648        35.81785        -0.18656
