         282
 CSIRO Nanostructure Databank - Neutral Graphene Oxide Data Set
C        -10.95833         0.78855        -1.24767
C         -9.74493         1.55338        -1.00071
C         -8.49109         0.78570        -0.79052
C         -7.34392         1.43634        -0.13918
C         -6.20316         0.70874         0.09472
C         -5.03255         1.37629         0.81605
C         -3.64285         0.63589         0.67797
C         -2.55024         1.42587        -0.11889
C         -1.23150         0.64565        -0.09033
C          0.06328         1.35439         0.04067
C          1.26485         0.72714        -0.64262
C          2.57640         1.41736        -0.29789
C          3.75481         0.74081        -0.38092
C          5.01528         1.52960        -0.69745
C          6.28851         0.64686        -0.58698
C          7.52734         1.49485        -0.30177
C          8.75723         0.71146        -0.50462
C         10.09404         1.40149        -0.82059
C         11.30061         0.53692        -0.90308
C         -9.66199         2.90878        -1.05787
C         -8.31910         3.60409        -0.91586
C         -7.48276         2.89997         0.19505
C         -6.14570         3.58265         0.37620
C         -4.99032         2.88393         0.50617
C         -3.70483         3.64454         0.57125
C         -2.43104         2.89768         0.35605
C         -1.13021         3.52472         0.82603
C          0.12911         2.81498         0.41460
C          1.26095         3.59455        -0.22513
C          2.59161         2.87842        -0.20582
C          3.76179         3.59996        -0.11546
C          5.07559         2.85661         0.06965
C          6.32046         3.65263        -0.30956
C          7.55215         2.86499        -0.36106
C          8.85531         3.54649        -0.42756
C         10.07536         2.81610        -0.54924
C         -8.50940         5.10871        -0.65661
C         -7.25620         5.83434        -0.18387
C         -6.17760         5.07392         0.50462
C         -4.94801         5.81051         0.96544
C         -3.66796         5.01063         1.26110
C         -2.39196         5.83100         0.82306
C         -1.13524         5.02843         1.24275
C          0.19267         5.71461         0.87614
C          1.37532         5.00776         0.29334
C          2.56477         5.74754        -0.21091
C          3.76792         5.05714        -0.23246
C          5.03734         5.75661        -0.46343
C          6.31534         5.01690        -0.47033
C          7.65005         5.78630        -0.59615
C          8.87369         4.92897        -0.42372
C         -7.19888         7.18155        -0.21495
C         -6.16479         7.99534         0.53406
C         -4.83341         7.28040         0.72974
C         -3.67741         7.96880         0.91813
C         -2.42767         7.26236         1.45035
C         -1.11231         7.99016         1.08974
C          0.16885         7.21696         0.86216
C          1.13722         7.91363        -0.09087
C          2.45416         7.20459        -0.39145
C          3.75005         7.95613        -0.48400
C          4.95427         7.12200        -0.63227
C          6.80699         7.96321         0.25397
C          7.65166         6.92569         0.44138
C         -5.98529         9.36536        -0.06100
C         -4.84752        10.04578         0.09145
C         -3.64913         9.48729         0.82486
C         -2.37892        10.03234         0.13948
C         -1.10683         9.36815         0.56363
C          0.13137        10.05380         0.50801
C          1.31732         9.34996         0.34412
C          2.65498         9.83312         0.82953
C          3.92356         9.39485         0.04671
C          5.10597         9.60582         1.01545
C          6.32798         9.03065         1.12433
C        -11.00671        -0.57406        -1.24375
C         -9.86595        -1.41539        -0.92025
C         -8.56902        -0.72902        -0.73209
C         -7.42514        -1.43395        -0.15955
C         -6.24785        -0.74089         0.00970
C         -4.98211        -1.48002        -0.17224
C         -3.71267        -0.73165        -0.02704
C         -2.42207        -1.49287        -0.06982
C         -1.23432        -0.76330        -0.70734
C          0.07616        -1.47974        -0.40785
C          1.24720        -0.76273        -0.38399
C          2.50093        -1.40744         0.01977
C          3.82894        -0.77083        -0.37343
C          4.90290        -1.21330         0.64960
C          6.25523        -0.55461         0.37436
C          7.53905        -1.29573         0.51961
C          8.83874        -0.68360         0.03172
C          9.99600        -1.52729        -0.40502
C         11.19879        -0.81176        -0.92413
C         -9.91560        -2.77841        -0.84521
C         -8.78745        -3.57961        -0.30523
C         -7.52135        -2.88969         0.12902
C         -6.18969        -3.62441         0.44042
C         -5.06973        -2.98439        -0.41009
C         -3.74205        -3.71767        -0.26011
C         -2.45660        -2.96914        -0.14251
C         -1.18873        -3.67053        -0.61038
C          0.06937        -2.91916        -0.21545
C          1.22523        -3.63107         0.05567
C          2.48392        -2.89030         0.30183
C          3.82610        -3.61093         0.22226
C          4.98422        -2.75917         0.77160
C          6.27926        -3.49646         0.94759
C          7.67749        -2.83313         0.77329
C          8.44263        -3.45398        -0.40890
C          9.61427        -2.90583        -0.80638
C         -8.76650        -5.06235        -0.40702
C         -7.60394        -5.73144        -0.26260
C         -6.27870        -5.14480         0.15441
C         -5.05705        -5.77402        -0.52981
C         -3.75046        -5.06527        -0.43066
C         -2.46422        -5.82465        -0.74881
C         -1.30083        -5.09488         0.00050
C          0.03546        -5.80010         0.21003
C          1.20686        -5.07451         0.27885
C          2.44240        -5.69830         0.86996
C          3.74402        -4.95419         0.92165
C          5.02447        -5.74914         1.08031
C          6.39373        -5.04062         0.96289
C          7.14096        -5.61618        -0.24181
C          7.85004        -4.64160        -1.14612
C         -7.28284        -6.95561         0.56581
C         -6.39782        -7.98194        -0.18450
C         -5.09519        -7.27218        -0.57247
C         -3.82414        -8.03256        -0.35041
C         -2.52298        -7.30505        -0.40875
C         -1.40871        -8.18056        -0.93596
C          0.01303        -7.10903         0.94586
C          1.26287        -7.95433         0.81285
C          2.53483        -7.20395         0.88042
C          3.74294        -7.82014         0.17990
C          5.02875        -7.21770         0.79636
C          6.37573        -7.88341         0.46844
C          7.12276        -6.94435        -0.47684
C         -6.12229        -9.26439         0.57556
C         -5.01235       -10.00423         0.43043
C         -3.83343        -9.56336        -0.41737
C         -2.50166       -10.12749         0.06139
C         -1.28266        -9.51083        -0.23611
C         -0.02123       -10.00037         0.16750
C          1.26522        -9.26435        -0.04916
C          2.55691       -10.01473         0.23112
C          3.73828        -9.34408         0.25191
C          5.03329        -9.98521         0.05271
C          6.19646        -9.30377        -0.01345
O         -9.52945         5.29453         0.33200
H         -9.28262         4.77504         1.12993
O          4.92235        -6.73955         2.14729
O         -5.23090        -6.49837        -1.80989
O          2.02776        -7.94204         2.03633
O         -8.14623        -0.01031        -1.96922
O          0.76090         3.68754        -1.63620
O         -3.62716         4.74231         2.65912
H         -3.49026         5.60094         3.12818
O          2.41609        -1.93419         1.38395
O         -1.17874        -3.64748        -2.04579
H         -0.52907        -4.30044        -2.37902
O         -6.01957         5.49381         1.92103
O          3.65743        -7.47686        -1.17601
O          6.48638         0.04306        -1.84976
O         -0.24964         2.89815         1.81056
O         -3.11789        -7.63754         0.86500
O         -0.50162         0.59197         1.16146
O          2.88098        -5.00029         2.08063
O          2.77427         9.22638         2.13569
H          1.88397         9.16958         2.54835
O          7.04197        -0.46985         1.60150
O         -8.27061         3.07834         1.45113
O         -2.32514        -5.77053        -2.17968
H         -3.20311        -5.97773        -2.57068
O         -3.15592         0.43282         2.00926
H         -2.28020        -0.01686         1.99472
O          1.25713         5.18279         1.74722
O         -3.01315         3.71813        -0.73092
O          4.88628         1.88522        -2.09002
H          5.51597         1.25622        -2.55555
O         -0.86335        -7.42580         1.72643
O         -8.15855         1.87169         2.24598
H         -7.18871         1.83320         2.48298
O         -0.05279         7.84524         2.13911
O         -3.62806        10.02756         2.16995
H         -4.42875         9.69860         2.63270
O         -1.81011        -4.95178         1.34035
H         -1.15651        -4.47252         1.89144
O          1.35442        -8.83544        -1.41421
H          2.22217        -8.33353        -1.53715
O          4.14098        -3.88942        -1.16506
H          4.13399        -3.01822        -1.65329
O          6.05621         7.92765        -0.95501
O          5.49284        -3.09827         2.09165
O          8.38536        -3.05324         1.93699
O         -4.03307       -10.02169        -1.77480
H         -3.22726        -9.82421        -2.29723
O         -0.80915        -7.87508        -1.94743
O          7.81458         6.30356        -1.93337
H          7.13264         7.00065        -2.07469
O          9.15537         0.89800        -1.87648
O         -7.10477        -8.35085        -1.38581
H         -6.82309        -7.72376        -2.09025
O          4.07891        10.28987        -1.06221
H          4.79811         9.94479        -1.63240
O         -2.18920        -2.26570         1.13827
O         -5.42338         1.32845         2.21311
H         -4.62271         1.09460         2.74428
O          5.20769         2.54016         1.47631
H          5.04700         3.35004         2.00269
O          7.15077        -5.33657         2.14545
H          7.76916        -4.56163         2.32324
O          4.17971        -1.25340        -1.69408
H          5.06052        -0.81626        -1.95931
O         -8.54516        -3.18782         1.13219
O         -4.33660        -0.77522        -1.34066
O          9.85222        -1.06326         0.99664
O         -6.41984        -6.04422         1.37412
O         -2.35207         6.14888        -0.57345
H         -2.43728         5.32304        -1.10727
O          2.92238         7.76674        -1.68840
O         -5.50035        -3.16074        -1.77967
H         -5.00882        -2.50856        -2.32889
O         -1.14492         5.04842         2.68127
H         -0.39213         4.48013         2.97094
O         -1.41582        -0.72166        -2.12296
H         -2.20358        -0.16047        -2.31368
O         -7.58775         3.48165        -2.15631
H         -7.62956         2.54693        -2.45307
O          7.15509        -8.01826         1.66844
H          7.12739        -7.14990         2.14794
O          1.07950         0.96728        -2.06469
H          1.75491         0.45021        -2.55277
O          0.39036         7.91611        -1.34011
H          1.04189         8.07280        -2.06321
O          4.47712        -0.68502         1.90752
H          5.07802        -1.05316         2.59378
O         -2.94828         1.40808        -1.49838
H         -3.28203         2.30514        -1.74251
O         -2.31363        11.44190         0.34841
H         -2.64450        11.59889         1.26163
O         -2.55550         7.23375         2.87658
H         -1.67983         6.95714         3.23901
O         -5.86398        -3.40309         1.80863
H         -6.53497        -3.86743         2.35398
O          6.88171        -4.10500        -2.07726
H          5.96615        -4.32339        -1.77992
O         -6.69331         8.18619         1.88250
H         -6.76642         7.28162         2.27446
O          1.83716         4.20597        -2.44965
H          2.27227         3.38546        -2.79156
H         12.09458        -1.41780        -1.13013
H         12.26195         1.02207        -1.13020
H         11.02548         3.33823        -0.35661
H          9.83751         5.44716        -0.55233
H          8.24011         6.82985         1.36433
H          6.98612         9.36166         1.94294
H          4.89831        10.39901         1.75232
H          2.65479        10.95399         0.92621
H          0.12672        11.15535         0.55901
H         -2.47547         9.85652        -0.97100
H         -4.74595        11.06638        -0.30910
H         -6.84185         9.81820        -0.58387
H         -8.03319         7.74019        -0.66844
H         -8.87763         5.58704        -1.59907
H        -10.55662         3.52006        -1.25009
H        -11.87442         1.35680        -1.46818
H        -11.96319        -1.07688        -1.45191
H        -10.85742        -3.30710        -1.05995
H         -9.72675        -5.60189        -0.40668
H         -8.10630        -7.41057         1.16260
H         -6.93854        -9.64360         1.21103
H         -4.92266       -10.95898         0.97241
H         -2.50490       -11.10144         0.57887
H          0.00377       -10.93950         0.74625
H          2.54290       -11.11559         0.20468
H          5.02552       -11.06256        -0.17874
H          7.12225        -9.84889        -0.25403
H          7.68889        -7.36309        -1.32451
H          8.65098        -5.15936        -1.73705
H         10.19647        -3.37210        -1.61738
