         274
 CSIRO Nanostructure Databank - Neutral Graphene Oxide Data Set
C        -11.33303         1.07158        -0.51731
C        -10.08475         1.90053        -0.77472
C         -8.80114         1.06703        -0.56625
C         -7.60979         1.68682         0.18027
C         -6.32041         0.91409         0.61343
C         -4.97695         1.59639         0.18911
C         -3.77129         0.86086         0.82378
C         -2.59974         1.48802         1.11470
C         -1.32415         0.73370         1.31202
C         -0.07726         1.40426         0.78960
C          1.10064         0.60802         0.29938
C          2.42954         1.28174         0.42320
C          3.55922         0.51339         0.47537
C          4.85702         0.76831         1.19905
C          6.11453         0.16673         0.60472
C          7.41757         0.83968         0.82661
C          8.63842         0.12941         0.32734
C          9.83681         0.97904        -0.05785
C         10.87090         0.31759        -0.88911
C         -9.98849         3.27877        -0.17652
C         -8.64772         3.94653        -0.41224
C         -7.59035         3.16865         0.37355
C         -6.32098         3.83111         0.92073
C         -4.98433         3.16486         0.39238
C         -3.79991         3.73604         1.21562
C         -2.45912         2.98753         1.34651
C         -1.35424         3.62783         0.50881
C         -0.15842         2.79300         0.21610
C          1.16536         3.38551        -0.26729
C          2.40120         2.77785         0.42754
C          3.70457         3.50538         0.29256
C          5.04108         2.80711         0.22079
C          6.07041         2.97608         1.14598
C          7.43062         2.36320         0.94513
C          8.60035         3.13657         0.41804
C          9.68665         2.45322        -0.04255
C         -8.55554         5.42908        -0.22932
C         -7.33435         6.05308         0.07013
C         -6.23691         5.30381         0.54625
C         -5.04780         6.05101         1.05811
C         -3.75446         5.23127         1.20992
C         -2.52331         5.91191         0.59135
C         -1.23073         5.11916         0.52686
C         -0.07951         5.73551         0.13495
C          1.13016         4.93858        -0.28767
C          2.44981         5.64859        -0.39867
C          3.77038         4.86611        -0.44121
C          4.98417         5.58090         0.22922
C          6.32605         5.06305        -0.37115
C          7.55766         5.59800         0.28860
C          8.75486         4.67242         0.54107
C         -7.16066         7.47708        -0.19554
C         -5.96336         8.14737        -0.02072
C         -4.81633         7.45467         0.52591
C         -3.69497         8.07307         1.08474
C         -2.38042         7.38061         1.00262
C         -1.14298         8.09947         0.47811
C         -0.06191         7.22798        -0.13544
C          1.23840         7.90024        -0.52841
C          2.48096         7.12855        -0.18134
C          3.77179         7.85885        -0.05785
C          5.04303         7.10950         0.20997
C          6.36747         7.79985         0.24822
C          7.60838         6.95268         0.37987
C         -5.83949         9.49448        -0.60285
C         -4.73371        10.11475        -1.08383
C         -3.34693         9.59095        -1.03273
C         -2.39550        10.23157        -0.30483
C         -1.08762         9.64631         0.22571
C          0.07751        10.12043        -0.69204
C          1.38166         9.38132        -0.48254
C          2.58693         9.99953        -0.49523
C          3.87296         9.22309        -0.70260
C          5.20051         9.90578        -0.40709
C          6.34474         9.24552        -0.13157
C        -11.39147        -0.27232        -0.47917
C        -10.20696        -1.15388        -0.13763
C         -8.90598        -0.41696        -0.44615
C         -7.63223        -1.19543        -0.16551
C         -6.31775        -0.53485         0.12664
C         -5.06609        -1.35153         0.40482
C         -3.79679        -0.65076         0.77148
C         -2.74228        -1.43125         1.57904
C         -1.35969        -0.77748         1.42578
C         -0.14266        -1.55244         1.04010
C          1.03721        -0.87209         0.42565
C          2.28093        -1.65868         0.29282
C          3.48313        -0.88106        -0.04313
C          4.73107        -1.62183        -0.38177
C          6.06274        -1.02925        -0.07304
C          7.25620        -1.78329        -0.44051
C          8.49770        -1.20895        -0.28763
C          9.69575        -1.86487        -0.80560
C         10.85789        -1.02125        -1.09166
C        -10.17879        -2.60112        -0.65274
C         -9.06499        -3.38635        -0.41237
C         -8.02642        -2.58972         0.32689
C         -6.10617        -3.48567        -0.52102
C         -5.27060        -2.83504         0.69267
C         -3.95234        -3.63939         0.74154
C         -2.71839        -2.96267         1.24025
C         -1.38789        -3.72810         1.25817
C         -0.23224        -2.99121         0.57911
C          1.08958        -3.73893         0.82045
C          2.32553        -3.02207         0.40651
C          3.54255        -3.74982         0.06767
C          4.64737        -3.09559        -0.41193
C          5.76213        -3.79878        -1.07955
C          7.12740        -3.12520        -1.10569
C          8.39309        -3.98478        -1.37454
C          9.66226        -3.17787        -1.18391
C         -8.96558        -4.83296        -0.37713
C         -7.78268        -5.57188        -0.17226
C         -6.42576        -4.99708        -0.55996
C         -5.26076        -5.67097         0.22002
C         -3.94938        -4.92221        -0.11489
C         -2.65628        -5.73312         0.00643
C         -1.44336        -5.11440         0.61502
C         -0.22686        -5.95958         0.73907
C          1.06873        -5.24518         0.89355
C          2.34058        -6.00329         0.64410
C          3.62599        -5.21598         0.23404
C          4.66752        -5.98370        -0.41485
C          5.57414        -5.27424        -1.35337
C          7.48401        -5.99578         0.07608
C          8.40503        -5.39743        -0.74593
C         -7.74841        -6.98711        -0.00056
C         -6.53582        -7.76260        -0.00560
C         -5.28565        -7.14284        -0.02719
C         -4.04481        -7.91431        -0.17008
C         -2.69909        -7.22580        -0.16381
C         -1.46874        -8.00055         0.07939
C         -0.24972        -7.25465         0.23538
C          0.98753        -7.60432        -0.59045
C          2.28033        -7.35048         0.13324
C          3.45847        -8.09485        -0.00534
C          4.70901        -7.37108        -0.14230
C          5.98832        -8.07504        -0.12415
C          7.22200        -7.44516        -0.00451
C         -6.52764        -9.23168        -0.10084
C         -5.39453        -9.96975        -0.00705
C         -4.06993        -9.32726         0.36616
C         -2.77719       -10.07462         0.11095
C         -1.53324        -9.44747         0.08666
C         -0.29074       -10.23953         0.29758
C          0.92971        -9.87040        -0.20631
C          2.28402       -10.34904         0.04987
C          3.43371        -9.56360        -0.05313
C          4.73366       -10.20702        -0.04967
C          5.91384        -9.52470        -0.10945
O          2.96985         3.50710         1.54125
O         -6.71213        -0.82824        -1.23096
O          7.67666         1.50058         2.10795
O         -0.41108        -1.26823         2.43248
O          3.93331         8.92602        -2.13928
H          3.87882         9.77358        -2.62893
O          1.64476         5.38543        -1.58566
O         -1.20192         2.98914        -0.80421
O         -4.01000        -4.52138        -1.48852
H         -3.08357        -4.39400        -1.80172
O         -5.52651         6.35079         2.42567
H         -5.63785         5.47663         2.87913
O          0.27758         7.47705        -1.53931
O         -1.67180        -5.08425        -0.86070
O          0.89972        -8.87837        -1.19863
O          6.46385         4.51480        -1.45576
O         -8.69538         0.22358        -1.74828
O         -6.35893        -5.38919        -1.93868
O         -4.80948         3.77984        -0.89600
H         -4.61927         3.07344        -1.56020
O          3.37794        -5.70426         1.59702
O          4.80068         0.99384         2.41716
O          4.03653         4.61074        -1.82760
H          3.15944         4.55935        -2.28271
O         -4.11724        -9.14114         1.83093
H         -4.16659       -10.02989         2.24240
O          5.57435         7.62595         1.49065
O          5.76722         3.17070         2.45423
H          6.40451         2.64987         2.99577
O          6.23660        -3.05470        -2.25069
O         -3.11253        -1.27268         2.95217
H         -2.35088        -1.56905         3.49757
O         -3.56510        -3.77581         2.13172
O         -0.49619        -2.92924        -0.83298
H          0.11623        -2.28779        -1.25501
O         -8.20661         2.30653         1.38017
O         -1.98712         3.14031         2.69615
H         -2.69856         2.88157         3.31789
O          1.19710        -4.41562         2.09473
O         -1.08348        -3.87587         2.64942
H         -1.91300        -4.13931         3.10582
O         -3.34551        -7.67525        -1.42421
O          0.75262        -0.19571        -0.87695
O          3.94600        -0.96452        -1.44423
O         -6.36344         3.74376         2.35470
H         -6.93112         2.96227         2.57334
O          9.75308         0.29649         1.24615
O         -1.30682         7.75168         1.89811
O         -4.01227        -1.13688        -0.59729
O         -3.89746         4.50621         2.45950
O          2.91089         7.66738         1.11136
O          6.07047        -5.81070        -2.34082
O         -0.34071         1.33253         2.21023
O         -7.99903        -2.78242         1.54588
O         -4.82883         1.36841        -1.22329
H         -4.59766         0.41359        -1.37200
O          5.39632         2.38429        -1.04375
H          4.94026         2.94930        -1.71720
O          0.24159        11.51960        -0.50757
H          0.07844        11.69521         0.44603
O          4.89976         5.24428         1.61289
H          5.18090         6.02588         2.14501
O         -3.72842         9.30468         1.62829
H         -4.64328         9.65244         1.59372
O         -6.27794         0.86625         2.04992
H         -7.11650         0.48541         2.38740
O         -8.29309         3.85406        -1.83730
H         -9.02321         3.35442        -2.29846
O          0.98438        -6.66114        -1.67111
H          0.19583        -6.83837        -2.22728
O         -2.94705         5.95070        -0.81105
H         -2.18089         6.20802        -1.36891
O          1.32345         2.93897        -1.62916
H          0.45761         3.05445        -2.08146
O        -10.29330        -1.23099         1.32237
H         -9.79037        -2.01060         1.64928
O          9.25828         4.93640         1.85718
H          8.64189         4.54999         2.51266
O         -0.83456        10.26199         1.50078
H         -1.22546         9.68141         2.19457
O          8.40285        -4.27116        -2.79233
H          7.54169        -4.71232        -3.00245
O         -6.01604        -2.94763        -1.61149
H         -6.03833        -4.60641        -2.44930
O         -5.82776        -2.90103         1.98678
H         -5.75377        -3.83077         2.31151
O         -5.49580        -5.52471         1.65047
H         -6.20396        -6.15546         1.90411
O         -3.08226         8.40929        -1.66750
H         -3.90749         8.04039        -2.04171
O        -10.21488         2.12584        -2.24358
H         -9.87998         1.29451        -2.66381
O          6.75141        -5.25027         0.96768
H          6.19856        -5.83517         1.52531
H         11.69179        -1.49511        -1.63125
H         11.71537         0.92339        -1.25123
H         10.53384         3.02886        -0.45241
H          9.56950         4.97194        -0.17129
H          8.53005         7.45802         0.71411
H          7.28882         9.80789        -0.05512
H          5.25207        10.98861        -0.60680
H          2.61057        11.10093        -0.53141
H         -0.21625         9.94056        -1.76170
H         -2.67857        11.18991         0.15194
H         -4.85525        11.14382        -1.46141
H         -6.79627        10.02999        -0.72366
H         -7.99384         7.99743        -0.69136
H         -9.37435         6.04192        -0.63876
H        -10.87732         3.91169        -0.35760
H        -12.27864         1.62693        -0.62955
H        -12.38005        -0.75798        -0.44308
H        -11.11149        -3.05106        -1.02918
H         -9.91342        -5.39480        -0.43035
H         -8.70462        -7.53204         0.05178
H         -7.48722        -9.73688        -0.29252
H         -5.44705       -11.06627        -0.09883
H         -2.81055       -11.17483         0.16514
H         -0.35975       -11.10086         0.98004
H          2.42389       -11.42384         0.25458
H          4.75499       -11.30718        -0.02283
H          6.86024       -10.08645        -0.11245
H          8.11222        -8.08929        -0.10433
H          8.95954        -6.10241        -1.38667
H         10.57410        -3.63197        -1.60243
