         244
 CSIRO Nanostructure Databank - Neutral Graphene Oxide Data Set
C          1.16925         2.06187         0.53986
C          1.09395         3.43213         0.25698
C          2.38031         1.39265         0.62284
C          2.25889         4.10587        -0.31315
C          2.28055         6.36390         0.82491
C          1.71332         7.74446         0.78772
C          2.26456         5.60240        -0.48063
C          2.43572         8.54752        -0.03491
C          1.16579        10.71438        -0.21995
C          1.17595        12.09647        -0.39806
C          2.36598         9.99262        -0.28457
C          2.36581        12.79424        -0.66595
C          1.12194        15.01784        -0.43811
C          1.13364        16.32795        -0.08218
C          2.37264        14.30094        -0.88229
C          2.36172        17.03755         0.13797
C          2.40826        18.41996         0.26046
C          3.66430         2.17019         0.66112
C          3.59420         3.41568        -0.20907
C          4.86414         1.35825         0.29721
C          4.87127         4.22971        -0.41559
C          3.52796         6.35532        -0.07155
C          3.60889         7.78200        -0.53584
C          4.84885         5.61990         0.25796
C          4.90425         8.50301        -0.54223
C          3.57014        10.69370        -0.55653
C          3.58765        12.08956        -0.75263
C          4.85307         9.97753        -0.35391
C          4.85295        12.87695        -1.15601
C          3.65263        14.90249        -0.33742
C          3.58969        16.21137         0.41406
C          4.84855        14.23887        -0.45402
C          4.87479        16.98597         0.33434
C          3.62435        19.10894         0.42366
C          4.86079        18.42689         0.43887
C          6.10312         2.00744         0.13336
C          6.12697         3.46980        -0.01547
C          7.30891         1.30305         0.26981
C          7.30903         4.16272        -0.04941
C          6.13661         6.35280        -0.17178
C          6.17665         7.77221        -0.35284
C          7.33101         5.61169        -0.20701
C          7.37289         8.48705        -0.45656
C          6.13054        10.70848        -0.42623
C          6.21220        12.08935        -1.04807
C          7.39678         9.92160        -0.48079
C          7.37890        12.82095        -0.40409
C          6.09015        14.89387        -0.06628
C          6.07044        16.28054         0.27326
C          7.33831        14.19913        -0.10786
C          7.32962        16.98854         0.71050
C          6.08866        19.13937         0.40752
C          7.32627        18.47231         0.42278
C          8.57119         2.06892         0.55880
C          8.58252         3.37086        -0.23437
C          9.85366         1.30920         0.35650
C          9.84973         4.15577        -0.01350
C          8.60922         6.27143        -0.35259
C          8.66200         7.74421        -0.73465
C          9.80373         5.57635        -0.19488
C          9.83822         8.46020        -0.13878
C          8.57349        10.63732        -0.30906
C          8.57512        12.08013        -0.23606
C          9.78454         9.90889         0.20165
C          9.81520        12.76735        -0.01981
C          8.58465        14.89958         0.11997
C          8.60119        16.29492         0.30992
C          9.82354        14.18390         0.05897
C          9.81749        17.01548         0.29487
C          8.54345        19.15068         0.33510
C          9.80122        18.46805         0.31059
C         11.05547         2.00168         0.24162
C         11.04422         3.46298         0.13723
C         12.30992         1.33056         0.25156
C         12.30626         4.18130         0.22750
C         11.10641         6.33000        -0.29789
C         11.02641         7.72116         0.34818
C         12.30536         5.56150         0.18292
C         12.26848         8.50509        -0.02473
C         11.08120        10.64770        -0.03117
C         11.06329        12.04855        -0.00862
C         12.29919         9.91330        -0.09964
C         12.30697        12.76961         0.00563
C         11.06572        14.88994         0.13416
C         11.05816        16.32603         0.19678
C         12.28953        14.17218         0.08739
C         12.28154        17.06304         0.13952
C         11.00335        19.17048         0.22028
C         12.26052        18.50007         0.12949
C         13.54713         2.02634         0.25410
C         13.55471         3.45965         0.29692
C         14.78329         1.33687         0.19930
C         14.79180         4.17125         0.25144
C         13.53762         6.35323         0.52639
C         13.50025         7.71544        -0.16621
C         14.81515         5.59385         0.26114
C         14.79216         8.43390        -0.38258
C         13.54348        10.64928        -0.22217
C         13.54850        12.03453        -0.11459
C         14.80140         9.93296        -0.69711
C         14.79923        12.78931        -0.24235
C         13.58397        14.89723         0.32972
C         13.53074        16.38340         0.04921
C         14.78173        14.16206        -0.21982
C         14.70891        17.11044        -0.05434
C         13.47082        19.21742         0.04718
C         14.71651        18.54947        -0.04634
C         16.01685         2.02663         0.14381
C         16.02878         3.46522         0.16523
C         17.24901         1.33494         0.04780
C         17.26187         4.17590         0.11401
C         16.02785         6.28470         0.17788
C         16.00213         7.76676         0.19673
C         17.27388         5.60411         0.13607
C         17.29689         8.50815         0.18584
C         16.09576        10.63751        -0.33825
C         16.07307        12.07310        -0.35831
C         17.29931         9.94379        -0.18090
C         17.27753        12.77990        -0.34409
C         16.02352        14.93190        -0.44821
C         15.99453        16.41817        -0.31443
C         17.31668        14.21947        -0.30164
C         17.24510        17.11682         0.18242
C         15.94878        19.25169        -0.11510
C         17.22238        18.60765        -0.07776
C         18.47101         2.02539        -0.02978
C         18.49307         3.45453         0.01463
C         19.71147         1.31290        -0.16375
C         19.73385         4.15949        -0.06426
C         18.52983         6.33532         0.12205
C         18.54410         7.73107         0.13971
C         19.77620         5.58834         0.01534
C         19.80064         8.49673         0.20474
C         18.56506        10.60713        -0.27161
C         18.53703        12.04611        -0.54161
C         19.79376         9.94419        -0.12142
C         19.85690        12.80018        -0.41784
C         18.49198        14.92397        -0.15226
C         18.51072        16.40785        -0.25885
C         19.77254        14.21595         0.03128
C         19.80291        17.17252        -0.21145
C         18.40430        19.31194        -0.09511
C         19.78968        18.70810        -0.15322
C         20.89790         1.98490        -0.26504
C         20.94268         3.41790        -0.22062
C         22.16868         4.10931        -0.33092
C         21.02678         6.24817        -0.06526
C         21.11011         7.71980         0.12035
C         22.20428         5.49294        -0.25985
C         22.29065         8.49775        -0.29704
C         21.05349        10.64064        -0.19171
C         21.10053        12.05324        -0.18828
C         22.26693         9.85319        -0.32336
C         22.30324        12.84320        -0.13926
C         21.07314        14.96864         0.20265
C         21.03502        16.46498         0.24125
C         22.30166        14.21145        -0.08205
C         21.96197        17.14614         0.96797
C         20.72075        19.25619         0.90081
C         21.77810        18.53910         1.33095
O         20.57943         8.16551         1.41361
O          2.84529         3.28856        -1.44055
O          5.49707        10.50410         0.88002
O         16.02610        15.82573        -1.64792
O         14.19229         7.67013        -1.47625
O         16.49449         8.32903         1.44631
O         20.34214        14.40777         1.37107
O          4.20667         8.11402        -1.80470
O         19.27569        12.52208        -1.72662
O         19.19432        16.78756        -1.49863
O          2.39657        14.51760        -2.35092
H          1.59404        14.09322        -2.72254
O          5.01513         4.49154        -1.83242
H          4.29852         3.99056        -2.29234
O          3.46722        15.82665         1.84642
H          3.72359        16.60997         2.37892
O          8.52236         2.44002         1.98103
H          8.56633         1.61510         2.50810
O         13.50258         6.58953         1.96506
H         12.58948         6.91458         2.18792
O         11.36228         6.59136        -1.71034
H         11.34924         5.73719        -2.19015
O          8.79723         7.77885        -2.20600
H          7.92519         7.54144        -2.58784
O          8.59357         2.98760        -1.64560
H          8.33654         3.77225        -2.17395
O          6.68711        11.78753        -2.38583
H          6.23535        12.41053        -3.00355
O         17.24520        16.95356         1.63308
H         16.44312        17.39162         1.98840
O         10.95444         7.53201         1.81099
H         10.57178         8.36656         2.18050
O          4.93629         5.42386         1.68098
H          5.12820         6.28356         2.10838
O          9.65474         9.96137         1.69661
H          9.63898        10.91218         1.94563
O          4.69682        13.16553        -2.57139
H          3.88951        13.73472        -2.68653
O         20.34533        19.15985        -1.42729
H         19.92210        18.60201        -2.11935
O          1.47157         6.11280        -1.52507
H          1.84339         5.80613        -2.37702
O         14.74601        10.05974        -2.15039
H         14.24411         9.27544        -2.47986
O         13.78359        14.83449         1.80316
H         12.97176        15.19529         2.22010
O          3.83996         2.67566         2.03935
H          4.10222         1.92064         2.60612
O          7.30609        16.89178         2.18903
H          8.08266        17.39117         2.52104
H          0.23783         1.51073         0.74262
H          0.14700         3.97960         0.35788
H          2.40035         0.32489         0.88758
H          2.25024         5.78684         1.76396
H          0.84112         8.04542         1.38130
H          0.22121        10.19343        -0.01207
H          0.22403        12.63792        -0.31708
H          0.15271        14.53451        -0.62992
H          0.18309        16.87141         0.04098
H          1.47633        18.99792         0.16582
H          4.81904         0.25904         0.33703
H          3.62020        20.20690         0.47536
H          7.27682         0.21960         0.47124
H          6.06675        20.23695         0.32571
H          9.86370         0.21466         0.48070
H          8.54163        20.24772         0.24171
H         12.32126         0.23020         0.27105
H         10.98593        20.27048         0.20503
H         14.78316         0.23703         0.16976
H         13.44709        20.31715         0.05686
H         17.24819         0.23497         0.02148
H         15.92301        20.35036        -0.17838
H         19.68810         0.21388        -0.19477
H         18.36170        20.40624        -0.21898
H         21.84244         1.43305        -0.37851
H         23.10085         3.54032        -0.45688
H         23.17458         6.00382        -0.32269
H         23.22227         7.97151        -0.54898
H         23.19597        10.38490        -0.57425
H         23.27176        12.32887        -0.22568
H         23.24667        14.76419        -0.18573
H         22.82834        16.61166         1.38375
H         20.58715        20.30159         1.21547
H         22.49827        18.98164         2.03454
