         349
 CSIRO Nanostructure Databank - Neutral Graphene Oxide Data Set
C          1.08291         3.72208        -0.19029
C         -0.05305         4.36006         0.35849
C          1.31116         6.37101         1.00372
C          0.02166         5.61007         0.91554
C          1.19365         7.83347         0.58003
C         -0.02531         8.51265         0.43140
C          1.13498        10.62944        -0.01156
C         -0.05250         9.87875         0.15795
C          1.12073        12.08387        -0.21148
C         -0.09075        12.81003        -0.17400
C          1.08729        14.94240        -0.36708
C         -0.10996        14.19003        -0.25310
C          1.06085        16.38470        -0.28043
C         -0.16953        17.11821        -0.22482
C          1.02471        19.09525         0.60942
C         -0.20001        18.43328         0.13962
C          1.01789        20.51203         1.15256
C         -0.19606        21.32858         0.95701
C          1.12804        23.37066         0.57161
C         -0.13257        22.63718         0.63112
C          1.12788        24.77641         0.12245
C         -0.08699        25.46219        -0.25847
C          1.11539        27.50739        -0.87726
C         -0.07961        26.75913        -0.73699
C          1.17415        28.78984        -1.44810
C          3.50781         3.63315        -0.72369
C          2.35000         4.36096        -0.18291
C          3.73359         6.44833         0.09324
C          2.45101         5.67911         0.28757
C          3.67819         7.90283         0.49458
C          2.37926         8.56874         0.39962
C          3.69922        10.56382        -0.24929
C          2.35808         9.94189         0.08932
C          3.62399        12.07371        -0.50448
C          2.32794        12.80849        -0.38829
C          3.56788        14.98560        -0.68062
C          2.31495        14.21910        -0.45589
C          3.53644        16.49421        -0.61496
C          2.27321        17.15266        -0.22742
C          3.49575        19.35712        -0.06453
C          2.28965        18.47420         0.18948
C          3.56095        20.56982         0.84059
C          2.32717        21.26658         1.41403
C          3.54674        23.49141         1.10835
C          2.28688        22.73022         0.96618
C          3.56665        24.87504         0.51532
C          2.32498        25.46169        -0.00804
C          3.57594        27.30354        -1.25387
C          2.39731        26.93949        -0.32572
C          3.64127        28.80524        -1.48726
C          2.38963        29.44954        -1.67148
C          6.03455         3.32106        -0.64954
C          4.75280         3.73281        -0.15730
C          6.10219         6.48099         0.96601
C          4.90135         5.78508         0.77397
C          6.12502         7.93715         0.68892
C          4.81365         8.61618         0.72890
C          6.09687        10.86425         0.77349
C          4.72531        10.12867         0.86214
C          6.12640        12.23758         0.18785
C          4.89145        12.85563        -0.38952
C          6.06315        15.00606        -0.49661
C          4.87322        14.33592        -0.42930
C          6.08188        16.49306        -0.84707
C          4.81174        17.22661        -0.40481
C          6.06944        19.34963        -0.16772
C          4.80447        18.55762        -0.12914
C          6.07909        20.70668         0.44316
C          4.82905        21.24178         1.05454
C          6.12393        23.51492         0.95303
C          4.86596        22.78016         1.22921
C          6.10473        24.87046         0.66425
C          4.87183        25.43956         0.06010
C          6.06773        27.61432        -0.55509
C          4.88811        26.70869        -0.72206
C          6.11892        28.87449        -1.33607
C          4.85600        29.45304        -1.69426
C          8.53600         3.54700        -0.64389
C          7.25489         3.73476        -0.09665
C          8.62699         6.37217         0.91727
C          7.30018         5.75756         1.00732
C          8.73847         7.91227         1.06157
C          7.42705         8.65529         0.74825
C          8.62420        10.76397         0.15674
C          7.47095        10.16199         0.97606
C          8.65375        12.16928        -0.12944
C          7.40111        12.93286        -0.13336
C          8.55587        15.04018        -0.83193
C          7.32893        14.27510        -0.40778
C          8.59492        16.40789        -0.15633
C          7.31470        17.16306        -0.25772
C          8.58031        19.25293         0.33947
C          7.41101        18.66252        -0.42931
C          8.57311        20.62359         0.66580
C          7.36507        21.38071         0.75199
C          8.63742        23.46555         0.86968
C          7.37954        22.77162         0.95750
C          8.66720        24.94177         0.76643
C          7.33537        25.67054         0.63800
C          8.60592        27.65277        -0.39910
C          7.33205        27.04885         0.03508
C          8.58451        28.93581        -1.02496
C          7.33337        29.53046        -1.44288
C         10.94827         3.61587        -0.62770
C          9.73756         4.21933        -0.26752
C         11.06190         6.35732         0.15885
C          9.81109         5.56908         0.39807
C         11.10790         7.73985         0.19519
C          9.78344         8.48000         0.06793
C         11.05532        10.61934        -0.21969
C          9.84203        10.00644         0.06506
C         11.12460        12.03915        -0.72220
C          9.84546        12.80782        -0.48596
C         11.12967        15.01205        -0.33525
C          9.86644        14.26960        -0.70119
C         11.11649        16.42648         0.15365
C          9.86760        17.14484         0.08636
C         10.97728        19.16934         1.02257
C          9.78499        18.49672         0.45677
C         11.02550        20.62930         0.96733
C          9.83248        21.31408         0.86036
C         11.09919        23.40848         0.56837
C          9.83275        22.75581         0.81700
C         11.02720        24.75062        -0.03005
C          9.83716        25.57575         0.15586
C         11.06427        27.57933        -0.63359
C          9.82597        26.92052        -0.29988
C         11.05487        28.96371        -1.00830
C          9.80633        29.59063        -1.27759
C         13.41445         3.52277        -0.70768
C         12.23712         4.18239        -0.39528
C         13.61273         6.32210        -0.03132
C         12.29647         5.56476         0.12817
C         13.55944         7.78702        -0.10941
C         12.34814         8.45207         0.06488
C         13.59919        10.63004        -0.16136
C         12.32540         9.94561         0.25286
C         13.59467        12.06445        -0.16404
C         12.38345        12.76162        -0.28091
C         13.63459        14.91354         0.26277
C         12.40070        14.22604        -0.20825
C         13.46955        16.16635         1.08230
C         12.28072        17.01243         0.64589
C         13.55773        19.18999         1.10672
C         12.28502        18.40971         1.13090
C         13.57453        20.57503         1.05752
C         12.29985        21.36249         1.31756
C         13.56807        23.42054         0.47392
C         12.30712        22.75178         0.72293
C         13.57203        24.74886         0.08594
C         12.34506        25.45592        -0.29431
C         13.51073        27.64593        -0.46693
C         12.31650        26.92675        -0.44553
C         13.51686        29.03763        -0.81565
C         12.28387        29.65704        -1.13168
C         15.83813         3.50046        -1.15434
C         14.70199         4.18545        -0.77037
C         15.96382         6.33987        -0.77383
C         14.77139         5.61760        -0.57272
C         15.99381         7.77772        -0.58385
C         14.79626         8.48482        -0.33217
C         16.05583        10.61579        -0.38076
C         14.79751         9.92190        -0.28025
C         16.07958        12.04567        -0.19513
C         14.85752        12.75282        -0.04461
C         16.07126        14.81159         0.52933
C         14.88823        14.13195         0.35392
C         16.09089        16.18558         1.07099
C         14.78773        16.93129         1.26851
C         16.12267        19.13537         1.07841
C         14.82649        18.43253         1.26505
C         16.09885        20.61851         1.38102
C         14.81066        21.30833         0.97791
C         16.06418        23.39598         0.66088
C         14.82919        22.69135         0.71309
C         16.04513        24.85414         0.45393
C         14.84403        25.48903        -0.21136
C         16.01693        27.69121        -0.34094
C         14.75333        27.00009         0.10578
C         16.00153        29.05127        -0.72087
C         14.75712        29.73222        -0.87725
C         18.36365         3.44564        -1.10632
C         17.11866         4.20218        -1.49868
C         18.40589         6.31085        -0.96046
C         17.16743         5.64312        -1.05699
C         18.45892         7.74128        -0.82440
C         17.23798         8.47866        -0.71071
C         18.50315        10.65474        -0.74827
C         17.24234         9.90530        -0.60473
C         18.54109        12.07467        -0.34210
C         17.31611        12.74211        -0.14014
C         18.60427        14.89860         0.24714
C         17.30082        14.24379        -0.11861
C         18.61447        16.28075         0.51743
C         17.37038        16.97061         0.96231
C         18.58317        19.16928         0.86381
C         17.31474        18.45870         0.94914
C         18.59163        20.60264         0.91166
C         17.36250        21.33579         0.98104
C         18.56849        23.47575         0.65033
C         17.33640        22.74615         0.80220
C         18.60583        24.84033         0.26874
C         17.33121        25.58414         0.22675
C         18.55446        27.64371        -0.71963
C         17.25292        26.91390        -0.45358
C         18.48401        29.11975        -0.62412
C         17.24895        29.75796        -0.80781
C         19.53480         4.09032        -0.92110
C         20.84108         6.20019        -0.80720
C         19.62115         5.54308        -0.93061
C         20.89684         7.60570        -0.75074
C         19.73851         8.38118        -0.76161
C         20.99816        10.59661        -0.31903
C         19.81832         9.86760        -0.78864
C         20.98153        11.95524        -0.14760
C         19.78460        12.74346        -0.20205
C         21.02440        14.90646         0.15246
C         19.81351        14.18054         0.06508
C         21.02886        16.27787         0.36192
C         19.82950        16.99803         0.56298
C         21.01357        19.17723         0.76896
C         19.80768        18.45372         0.74848
C         21.02270        20.56922         0.85108
C         19.83376        21.29848         0.87645
C         21.06102        23.45581         0.38925
C         19.86455        22.80335         1.03352
C         21.02082        24.73477        -0.06789
C         19.80625        25.49725        -0.06269
C         20.85641        27.73839         0.26873
C         19.90160        26.93093        -0.56731
C         20.73561        29.10051         0.35895
C         19.62850        29.81012        -0.17256
O         16.95689        16.35518         2.24764
O         19.21548        10.41534        -2.01170
O          3.49693        24.67483         1.97463
O         10.75175        14.78943        -1.76154
O          7.68914        16.58302         1.01460
O         13.33030        14.96257        -1.16014
O          6.88522         8.28365        -0.54654
O         11.60597        24.79648        -1.39093
O          3.51754        15.80280        -1.91627
O         17.81964        27.02778        -1.81685
O         14.77717        17.64708         2.53722
O          8.07351        25.65243         1.90404
O          5.91035        20.54737        -1.03671
O          4.41986        12.38143        -1.70888
O         13.17555         5.76916         1.27225
O          7.23493         4.40495         1.17677
O          5.00925        21.87737         2.35744
O          9.52147         5.63541         1.84178
O          4.84218         4.47416         1.08091
O          0.89081        19.41371         2.10817
O          6.01433        12.04257         1.65761
O          5.13477        25.43321        -1.41831
O         11.44373        18.62984         2.32989
O          6.43365        27.90623         0.83530
O         16.66184        25.62684         1.53384
O          3.31282        26.74745        -2.55632
H          3.84855        25.92343        -2.64008
O          8.35034        15.27555        -2.24408
H          9.23021        15.47407        -2.63968
O         12.25536        21.52017         2.77331
H         12.16460        20.61690         3.15414
O          3.28572        19.89500        -1.42254
H          4.15254        20.28232        -1.70108
O          2.48459        21.31782         2.85378
H          2.14776        20.46057         3.20215
O          7.74874        18.87143        -1.82287
H          7.34515        19.72758        -2.09407
O         17.13108        14.62059        -1.55804
H         17.78809        14.10216        -2.07201
O          2.69105        27.60415         0.93912
H          2.08545        27.25031         1.62403
O         14.59927        27.12753         1.54925
H         14.59893        28.08194         1.77065
O          9.15599         8.18220         2.39865
H          9.65474         7.39436         2.71761
O          1.67766         6.42700         2.43716
H          1.67715         5.50552         2.77355
O         15.07028        25.34745        -1.64018
H         14.23071        25.53927        -2.11015
O         11.25404        11.95441        -2.20082
H         11.25419        12.88700        -2.52428
O          4.14814        10.41207         2.14531
H          4.57506        11.22858         2.49501
O          4.12941         9.91309        -1.47016
H          4.42241        10.62307        -2.09258
O          7.82277        10.36359         2.35738
H          7.57164        11.28694         2.58846
O          9.30294         8.12826        -1.25944
H          9.72711         8.72508        -1.91125
O         16.08167        20.68526         2.86297
H         16.80266        20.10807         3.19502
O          4.07901         6.44078        -1.34005
H          4.21931         7.37011        -1.62941
O         12.28552        10.15430         1.72327
H         11.49771         9.68020         2.07068
O         13.09231        15.68158         2.39824
H         13.30290        16.40356         3.03686
O         17.14836         4.23945        -2.98574
H         17.96916         4.71306        -3.24151
O         20.01846        23.02803         2.49198
H         19.84528        23.97925         2.65920
O          6.10999        16.63419        -2.27715
H          5.27305        16.24189        -2.62296
O         20.47168        26.86229        -1.90940
H         19.72601        26.65767        -2.51793
H          0.99070         2.70824        -0.60267
H         -1.01541         3.82703         0.35076
H         -0.86492         6.04122         1.40262
H         -0.97714         7.97666         0.55032
H         -1.03127        10.36978         0.07524
H         -1.04529        12.28019        -0.05981
H         -1.07808        14.70384        -0.19425
H         -1.11316        16.62016        -0.48678
H         -1.16027        18.96279         0.19802
H         -1.17353        20.83439         1.04563
H         -1.07076        23.18024         0.45930
H         -1.05144        24.94384        -0.18612
H         -1.02884        27.21688        -1.05503
H          0.23525        29.29196        -1.72831
H          3.36410         2.99703        -1.60820
H          2.37736        30.49187        -2.02458
H          6.06493         2.78033        -1.60552
H          4.84806        30.50105        -2.03437
H          8.64399         2.74794        -1.39371
H          7.37261        30.51406        -1.93507
H         10.90676         2.61861        -1.09171
H          9.79608        30.61058        -1.68975
H         13.36466         2.47853        -1.05177
H         12.27535        30.71430        -1.43540
H         15.78197         2.41913        -1.35192
H         14.76242        30.79851        -1.14409
H         18.32328         2.34623        -1.09398
H         17.21978        30.85774        -0.84049
H         20.45762         3.52438        -0.72127
H         21.77327         5.61901        -0.76542
H         21.88089         8.09201        -0.70043
H         21.91411        10.03796        -0.07914
H         21.91777        12.44561         0.15383
H         21.98621        14.39524         0.01216
H         21.99745        16.79430         0.38190
H         21.97676        18.65337         0.72647
H         21.99289        21.08049         0.89514
H         22.02260        22.92462         0.39179
H         21.92802        25.20572        -0.47320
H         21.70843        27.22673         0.73855
H         21.51063        29.67369         0.88918
H         19.59182        30.90443        -0.07582
