         252
 CSIRO Nanostructure Databank - Neutral Graphene Oxide Data Set
C         30.52659        31.88976        -0.84584
C         30.50487        33.09146        -0.53199
C         30.64226        36.06468         0.61857
C         30.52906        37.23691         1.16777
C         30.77036        40.16008         2.61825
C         30.65662        41.39360         2.72722
C         32.86248        29.01176        -0.90328
C         31.75996        29.60617        -0.94872
C         32.90977        31.70242        -0.75591
C         31.65596        31.01537        -0.85940
C         32.98075        33.18677        -0.64141
C         31.64586        33.99300        -0.50859
C         32.98839        36.01938         0.28245
C         31.64379        35.26408         0.20433
C         32.93273        37.22828         1.22400
C         31.64435        37.98208         1.48677
C         33.04781        39.73892         2.43836
C         31.77272        39.21297         2.21020
C         32.97135        41.95121         2.61958
C         31.62568        42.43063         2.49956
C         32.68044        44.24531         1.44002
C         31.63156        43.70529         1.90377
C         35.55064        27.41575        -1.07260
C         35.38010        28.83451        -0.88190
C         34.16907        29.54234        -0.83240
C         35.40939        31.66611        -0.61408
C         34.15031        30.98173        -0.71232
C         35.42739        33.08191        -0.20649
C         34.25760        33.79089        -0.15604
C         35.47627        35.94503         0.46906
C         34.20633        35.08983         0.65151
C         35.42707        37.29983         0.71285
C         34.25797        37.91457         1.37594
C         35.38535        40.14456         1.63626
C         34.27774        39.33947         1.78905
C         35.43103        41.61405         2.08192
C         34.11528        42.47308         1.98043
C         35.18033        44.32829         0.65562
C         33.99703        43.76047         1.37581
C         35.50668        45.80655         0.52824
C         37.85577        27.31835        -1.68702
C         36.51191        26.74871        -1.47485
C         37.90522        28.68337        -0.92419
C         36.61763        29.52220        -0.94153
C         37.84260        31.70719        -1.21519
C         36.60420        30.93422        -0.80995
C         37.91642        33.05371        -0.45513
C         36.74374        33.66024         0.35125
C         37.85838        36.09483         0.35910
C         36.76938        35.25027         0.31695
C         37.73742        37.54155        -0.20118
C         36.49009        38.31648         0.30104
C         37.97264        40.28660         1.12441
C         36.72284        39.39136         1.39165
C         37.98698        41.80984         1.39667
C         36.60503        42.38904         1.49341
C         38.23053        44.91970         0.61441
C         36.40622        43.71872         1.31062
C         37.93244        46.11194        -0.09302
C         36.52313        46.36671         0.09229
C         40.26283        24.53774        -1.09907
C         39.35951        25.14649        -1.67985
C         40.42705        27.28931        -1.44467
C         39.14042        26.58542        -1.86139
C         40.37370        28.77382        -1.34051
C         39.18533        29.43525        -1.21360
C         40.41813        31.61274        -1.27162
C         39.15739        30.89254        -0.81726
C         40.37334        33.08240        -0.97938
C         39.19713        33.40809        -0.13754
C         40.18425        36.08413        -0.52303
C         39.30347        35.91949         0.76706
C         40.23646        37.61188        -0.42943
C         39.08141        38.29023        -0.07656
C         40.31557        40.38118         0.30194
C         39.12909        39.67679         0.38730
C         40.45649        41.83502         0.56175
C         39.23619        42.64012         0.94321
C         40.29610        44.55128        -0.48081
C         39.24866        44.02315         0.33129
C         40.15477        45.82299        -1.12273
C         38.93891        46.61067        -0.94723
C         39.93329        48.81263        -1.57000
C         39.02132        47.93057        -1.47178
C         42.55935        24.58858         0.25284
C         41.18161        25.10947        -0.05882
C         42.52308        27.41676         0.10862
C         41.47793        26.57641        -0.61816
C         42.83919        28.78668        -0.43631
C         41.68273        29.47696        -1.22841
C         42.96707        31.63306        -1.00420
C         41.69224        30.91870        -1.19938
C         42.94042        33.14106        -0.96403
C         41.63507        33.91470        -0.99359
C         42.79684        36.11926        -0.31749
C         41.55878        35.39807        -0.70943
C         42.81453        37.49164        -0.24542
C         41.55566        38.26686        -0.44983
C         42.84317        40.42035         0.16932
C         41.55418        39.73957        -0.17251
C         42.85428        41.86147        -0.14090
C         41.62138        42.51553        -0.10105
C         42.74459        44.54237        -0.91846
C         41.55335        43.85658        -0.53767
C         42.61456        45.87769        -1.44681
C         41.33156        46.33772        -1.78926
C         42.52193        48.85871        -1.75148
C         41.19119        48.60093        -2.14763
C         43.48046        25.26667         0.71599
C         44.88916        27.46781         1.06812
C         43.64695        26.71712         0.87503
C         44.75742        29.02306         1.29204
C         43.91404        29.63359         0.15802
C         45.18730        31.78180         0.21543
C         44.06269        30.95020        -0.24011
C         45.28948        33.13907         0.02802
C         44.16471        33.90788        -0.55438
C         45.30580        36.08188         0.12034
C         44.07838        35.37772        -0.30505
C         45.28173        37.50608        -0.02641
C         44.08068        38.19088        -0.11542
C         45.34280        40.41555        -0.28153
C         44.11193        39.66522         0.03926
C         45.32540        41.77264        -0.49621
C         44.06098        42.52018        -0.50744
C         45.24666        44.56343        -1.40286
C         44.00755        43.88123        -0.85500
C         45.16378        46.10377        -1.18834
C         43.82917        46.76022        -1.35458
C         43.55206        48.15227        -1.70746
C         47.31143        27.64011         1.48472
C         46.17114        27.10112         1.15444
C         47.39172        28.96539         1.80345
C         46.11747        29.74406         1.51081
C         47.70185        31.69283         0.72183
C         46.29551        31.13367         0.98055
C         47.73541        33.21541         0.69557
C         46.40517        33.93519         0.71532
C         47.75671        36.09049         0.23941
C         46.49554        35.39049         0.28718
C         47.81980        37.45256        -0.00515
C         46.56578        38.17534        -0.40735
C         47.85957        40.29668        -0.70521
C         46.63063        39.66361        -0.04883
C         47.80482        41.81347        -0.57015
C         46.59625        42.49886        -0.66845
C         47.77750        44.62732        -1.06219
C         46.56589        43.91213        -0.96889
C         47.53330        46.02340        -1.31541
C         46.49817        46.68536        -1.46171
C         49.90105        29.16115         2.50504
C         48.57885        29.71682         2.23306
C         50.12138        31.75233         1.52233
C         48.77342        31.15530         1.65977
C         50.22548        33.06205         0.72169
C         48.92546        33.86438         0.69525
C         50.21612        36.10210         0.72110
C         49.03977        35.29769         0.19306
C         50.25840        37.47309         0.54244
C         49.06928        38.20965         0.08649
C         50.24649        40.41676         0.28891
C         49.09397        39.58439        -0.14338
C         50.38523        41.80315        -0.29832
C         49.07066        42.51422        -0.77431
C         50.32795        44.49850        -0.80751
C         49.03768        43.99707        -0.88605
C         50.96292        29.80746         2.56723
C         52.47973        31.87235         1.94267
C         51.25866        31.09802         2.01498
C         52.43361        33.07981         1.63074
C         51.40593        33.94539         1.17322
C         52.44680        36.20994         1.49719
C         51.37255        35.31437         1.17689
C         52.51393        37.44817         1.49589
C         51.60897        38.25005         0.58563
C         52.60631        40.64918         0.84988
C         51.47104        39.71869         0.88422
C         52.59423        41.87714         0.64420
C         51.59590        42.64949        -0.02133
C         51.42045        43.96143        -0.42198
O         33.69256        37.07140         2.46104
O         40.12700        32.60129        -2.33747
O         48.33317        30.90446         3.02038
O         41.66252        34.88997        -2.09265
O         42.82726        28.85683        -1.88428
O         38.38151        40.86633         2.41186
O         38.46604        27.20046        -2.97755
O         39.72968        36.20013         1.87894
O         32.39155        33.96883        -1.75904
O         41.61186        39.25552        -1.55729
O         41.60777        26.68402        -2.04732
O         46.47251        38.09811        -1.93002
O         37.42555        44.58399         1.68117
O         44.48353        34.82821        -1.66680
O         44.47726        46.55230        -0.03289
O         50.45114        40.22955         1.74791
O         49.97815        41.81422        -1.70325
O         33.15738        40.78053         3.38619
O         41.20439        47.31059        -2.81302
O         43.29932        32.44063        -2.20510
O         40.30444        42.39522         1.90787
O         43.53319        40.02457         1.39298
O         45.94156        30.91188         2.38940
O         42.49381        27.29836         1.54902
O         40.47835        25.24938         1.14369
H         40.40136        24.38115         1.58895
O         45.18512        44.41837        -2.85237
H         45.33230        43.47612        -3.07992
O         37.00535        38.68579         2.60828
H         37.37318        39.34095         3.24546
O         47.84053        40.09017        -2.13275
H         48.66016        40.50260        -2.49235
O         39.23724        30.87916         0.63588
H         38.70450        30.11593         0.96632
O         39.48598        33.88511         1.11245
H         40.44807        33.91495         1.28287
O         50.49911        32.69337        -0.66348
H         49.80962        32.03154        -0.92503
O         45.99925        33.99835         2.12162
H         46.11312        33.10807         2.52421
O         49.32295        35.12155        -1.23332
H         49.94980        34.36058        -1.32787
O         37.48281        37.39759        -1.61757
H         38.14896        36.76397        -1.98682
O         38.05348        28.29488         0.48529
H         37.23327        27.82492         0.75654
O         37.69766        31.81480        -2.63105
H         38.48115        32.29401        -2.99170
O         46.85390        39.74720         1.38204
H         45.98823        39.71157         1.84367
O         36.81268        33.23391         1.72040
H         37.65225        33.56772         2.10255
O         35.16010        43.80868        -0.69258
H         34.33378        44.11078        -1.12568
O         35.75423        41.56241         3.49585
H         34.99758        41.12143         3.94968
O         52.14415        38.21008        -0.73390
H         52.29842        37.27753        -0.99249
O         35.93133        39.07391        -0.79129
H         36.05418        38.53548        -1.60897
O         48.08705        31.24238        -0.61361
H         47.44569        31.60423        -1.26351
O         33.22394        36.53768        -1.03838
H         33.08412        35.79846        -1.67989
O         34.08548        34.59677         1.99067
H         34.14591        35.36487         2.61020
O         39.37630        35.62176        -1.61871
H         40.00124        35.34397        -2.34157
O         43.99383        29.18411         2.48976
H         44.42182        29.88475         3.03292
O         46.68186        36.74099        -2.34015
H         45.76921        36.36244        -2.43378
