         424
 CSIRO Nanostructure Databank - Neutral Graphene Oxide Data Set
C          1.23392         3.57633         1.10884
C          0.03338         4.31977         1.23638
C          1.11084         6.29944         0.15242
C         -0.02856         5.64196         0.88972
C          1.14288         7.81063         0.28132
C         -0.06385         8.53560         0.21545
C          1.12683        10.66220         0.24121
C         -0.07616         9.92270         0.20634
C          1.14885        12.10944         0.19164
C         -0.05063        12.85581         0.14725
C          1.17320        14.95356        -0.04511
C         -0.03378        14.23782         0.01939
C          1.18386        16.38472        -0.32221
C          0.00619        17.05992        -0.73329
C          1.20413        19.17444        -0.86907
C          0.01569        18.41888        -0.98317
C          1.20628        20.61777        -1.02271
C          0.02641        21.33348        -1.33153
C          1.15915        23.48509        -1.21467
C          0.04040        22.73686        -1.49475
C          1.11755        24.98319        -1.38508
C          0.03337        25.62449        -0.53121
C          1.12623        27.78944        -0.99158
C          0.03965        26.94857        -0.35114
C          1.19338        29.19522        -0.44171
C         -0.00927        29.90792        -0.31130
C          1.20017        31.91011         0.36033
C         -0.01196        31.22978         0.10422
C          1.19577        33.31566         0.72554
C         -0.00800        34.02396         0.96248
C          1.21221        36.09757         1.31630
C         -0.00472        35.38179         1.22866
C          1.20393        37.54558         1.38601
C          3.67724         3.54374         0.88376
C          2.44498         4.22377         0.77834
C          3.62789         6.32494         0.31351
C          2.43678         5.63240         0.44663
C          3.62274         7.78553         0.25208
C          2.35878         8.51026         0.32150
C          3.58442        10.67359         0.33464
C          2.35984         9.94748         0.29783
C          3.62223        12.08658         0.27309
C          2.39062        12.81026         0.18086
C          3.64327        14.94610         0.14079
C          2.41191        14.24377         0.09607
C          3.61154        16.44621         0.33395
C          2.38553        17.10815        -0.23924
C          3.65947        19.21744        -0.53524
C          2.41464        18.49977        -0.52625
C          3.65944        20.62487        -0.76080
C          2.42548        21.32597        -0.87649
C          3.65193        23.53608        -1.05727
C          2.38919        22.81879        -0.66650
C          3.66835        24.91587        -1.07058
C          2.43462        25.67805        -1.08059
C          3.67467        27.76807        -0.69421
C          2.44319        27.04435        -0.93175
C          3.66559        29.10656        -0.32438
C          2.42329        29.83566        -0.17755
C          3.68545        31.93034         0.32901
C          2.43049        31.21467         0.20578
C          3.67727        33.32261         0.59467
C          2.43077        34.01069         0.82909
C          3.70123        36.08287         1.36614
C          2.42610        35.39022         1.17112
C          3.66263        37.65270         1.41232
C          2.34034        38.28355         1.31999
C          6.13642         3.54696         0.84310
C          4.90301         4.22130         0.71928
C          6.11193         6.31899         0.27514
C          4.90096         5.63760         0.43401
C          6.06993         7.75343        -0.19655
C          4.81349         8.46529         0.22808
C          6.13973        10.65191         0.44583
C          4.83386         9.91463         0.48141
C          6.12052        12.11910         0.23756
C          4.87477        12.80713         0.24039
C          6.13228        14.93636         0.15661
C          4.87824        14.23831         0.17513
C          6.13316        16.41049         0.18405
C          4.88840        17.14344        -0.05945
C          6.15668        19.19421        -0.66223
C          4.90392        18.50089        -0.37464
C          6.12356        20.62807        -0.92474
C          4.89913        21.32417        -0.91127
C          6.15601        23.50338        -1.07834
C          4.88760        22.75424        -1.39597
C          6.15365        24.91037        -1.01514
C          4.92247        25.64779        -1.02577
C          6.16452        27.75296        -0.74843
C          4.92857        27.03953        -0.81571
C          6.18744        29.15707        -0.47923
C          4.94739        29.75245         0.14586
C          6.13733        31.96644         0.07312
C          4.92153        31.25728         0.12039
C          6.13624        33.37885         0.30429
C          4.91455        34.04745         0.60407
C          6.13060        36.18251         0.80799
C          4.93822        35.43619         0.91743
C          6.10116        37.65331         0.90662
C          4.86594        38.33646         0.99738
C          8.59183         3.54325         0.80421
C          7.35668         4.23415         0.72564
C          8.60990         6.32072         0.33883
C          7.36596         5.64874         0.43494
C          8.61595         7.73657        -0.23339
C          7.35397         8.50046         0.05781
C          8.60959        10.60426         0.19999
C          7.38450         9.88159         0.17266
C          8.60745        12.06164        -0.18136
C          7.32877        12.81470         0.09678
C          8.61812        14.94877        -0.19484
C          7.35474        14.23940         0.06328
C          8.63227        16.31109        -0.43920
C          7.45069        17.13191        -0.16542
C          8.60389        19.11736        -1.17572
C          7.35634        18.49493        -0.70000
C          8.60987        20.64264        -1.27277
C          7.34605        21.35440        -1.06451
C          8.62645        23.47539        -0.96468
C          7.37149        22.77670        -1.03647
C          8.62686        24.90015        -0.88878
C          7.39482        25.61704        -0.91109
C          8.63539        27.73891        -0.87544
C          7.39792        27.03479        -0.85933
C          8.61281        29.22641        -1.12955
C          7.36647        29.89974        -0.57923
C          8.58469        32.05244        -0.28996
C          7.38499        31.29781        -0.25592
C          8.59587        33.44082        -0.03404
C          7.35303        34.12545         0.24952
C          8.55176        36.34394         0.10036
C          7.33029        35.52105         0.44883
C          8.60336        37.64121         0.92417
C          7.29416        38.36712         0.84244
C         11.01266         3.36674         0.70648
C          9.82210         4.20169         0.79983
C         11.05607         6.41046         0.64929
C          9.82995         5.65833         0.65646
C         11.14036         7.74357        -0.06708
C          9.85898         8.51430         0.08220
C         11.08076        10.58669         0.78761
C          9.84193         9.88571         0.25254
C         11.09195        12.10461         0.59956
C          9.82588        12.83181         0.27409
C         11.11331        14.89449        -0.28918
C          9.87889        14.23779        -0.17827
C         11.15414        16.28763        -0.62711
C          9.86106        16.93846        -1.04291
C         11.08865        19.14442        -0.98195
C          9.89039        18.43993        -0.95128
C         11.07610        20.59469        -1.03117
C          9.89662        21.32451        -1.06504
C         11.05805        23.48639        -0.69374
C          9.86499        22.77304        -0.92342
C         11.08800        24.90186        -0.64368
C          9.85263        25.61917        -0.79910
C         11.13775        27.77608        -1.02121
C          9.83759        27.04132        -0.84244
C         11.06796        29.22966        -0.60006
C          9.88841        29.91501        -0.70003
C         11.10830        32.07345        -0.25267
C          9.86530        31.41897        -0.78819
C         11.09418        33.45789        -0.01359
C          9.83804        34.17442         0.01886
C         11.05945        36.28742         0.36240
C          9.84661        35.57238         0.19986
C         11.07502        37.72040         0.52703
C          9.78875        38.51965         0.52202
C         13.57591         3.29483         0.90286
C         12.24607         3.76507         1.17063
C         13.54996         6.37686         0.76050
C         12.25301         5.90735         1.14100
C         13.59714         7.80795         0.46729
C         12.37793         8.51688         0.31158
C         13.58344        10.63411         0.45225
C         12.36864         9.90845         0.40458
C         13.58388        12.07805         0.37082
C         12.36867        12.80469         0.33597
C         13.59226        14.84972        -0.21121
C         12.36522        14.17753        -0.03710
C         13.63461        16.21511        -0.85201
C         12.35089        17.00910        -0.74386
C         13.59549        19.17250        -0.82088
C         12.36511        18.43169        -0.89130
C         13.61652        20.56742        -0.77293
C         12.38148        21.35229        -1.14954
C         13.54508        23.40022        -0.07645
C         12.28951        22.69704        -0.45768
C         13.52769        24.91154         0.16236
C         12.30392        25.62117        -0.40996
C         13.53241        27.74220        -0.22744
C         12.33674        27.02454        -0.48310
C         13.52768        29.18524        -0.18888
C         12.31961        29.91543        -0.33888
C         13.55569        32.02918         0.00037
C         12.32143        31.33732        -0.18340
C         13.56248        33.45378         0.18693
C         12.32201        34.15991         0.20578
C         13.52666        36.27660         0.56856
C         12.30552        35.57647         0.38659
C         13.52174        37.70137         0.71391
C         12.26411        38.38946         0.68989
C         15.98480         3.35144         0.90951
C         14.71699         4.10047         0.83293
C         15.93561         6.31626         0.43487
C         14.70975         5.57383         0.69779
C         16.06243         7.75928         0.87353
C         14.79886         8.51342         0.56554
C         16.06474        10.62942         0.37571
C         14.81508         9.92535         0.46277
C         16.06378        12.03960         0.25285
C         14.82283        12.76215         0.24245
C         16.06408        14.88343        -0.00157
C         14.82163        14.17198         0.01579
C         16.02777        16.32356        -0.15376
C         14.87616        16.99195        -0.49832
C         16.12511        19.20188        -0.49821
C         14.91369        18.42809        -0.96668
C         16.10889        20.59987        -0.45783
C         14.83883        21.31867        -0.54802
C         16.06003        23.47459         0.01906
C         14.82010        22.68534        -0.30072
C         16.01520        24.84598        -0.67721
C         14.78969        25.61481        -0.27132
C         16.02881        27.72656        -0.16282
C         14.79378        27.01268        -0.20278
C         15.99373        29.13805         0.36133
C         14.74961        29.90159        -0.00683
C         16.06799        32.05094        -0.19391
C         14.77384        31.29491         0.00992
C         16.04816        33.46034         0.34322
C         14.78742        34.14621         0.41310
C         15.97283        36.27418         0.81529
C         14.77038        35.56811         0.62090
C         15.96891        37.69975         0.89557
C         14.72838        38.39253         0.86185
C         18.47676         3.24452         0.27916
C         17.08641         3.64184         0.15581
C         18.35159         6.32199        -0.15543
C         17.02809         5.76441        -0.18761
C         18.44789         7.74177        -0.00654
C         17.27473         8.47468         0.31021
C         18.51779        10.57576        -0.01959
C         17.28805         9.88351         0.24859
C         18.52367        12.00823        -0.05707
C         17.29898        12.73881         0.08490
C         18.55635        14.84766        -0.03487
C         17.29869        14.16849         0.04686
C         18.59752        16.30316         0.15867
C         17.27148        17.07980         0.10245
C         18.56976        19.18689        -0.12921
C         17.32695        18.50833        -0.21058
C         18.58201        20.61326        -0.22859
C         17.33764        21.32141        -0.28327
C         18.54870        23.46076        -0.32182
C         17.34436        22.73678        -0.25875
C         18.52996        24.91100        -0.40851
C         17.30359        25.61302        -0.48835
C         18.49563        27.74057        -0.17207
C         17.27753        27.04107        -0.29569
C         18.51805        29.12625         0.32194
C         17.27505        29.91355         0.19578
C         18.55522        32.01691         0.31683
C         17.30775        31.27805         0.18307
C         18.51892        33.43868         0.42322
C         17.24750        34.11922         0.55342
C         18.48595        36.31132         0.72190
C         17.25099        35.52777         1.09093
C         18.43831        37.73543         0.75516
C         17.19531        38.40694         0.93460
C         19.51755         4.07167        -0.05006
C         20.74863         6.19288        -0.41044
C         19.50617         5.51291        -0.27322
C         20.83277         7.57702        -0.44193
C         19.69359         8.39739        -0.22766
C         20.92457        10.56718        -0.43793
C         19.72423         9.84258        -0.21696
C         20.93510        11.94776        -0.46500
C         19.74990        12.70310        -0.27497
C         20.96940        14.89837        -0.42326
C         19.75870        14.14921        -0.25092
C         20.99683        16.27669        -0.38930
C         19.83411        17.04110        -0.11136
C         21.02803        19.21382        -0.08757
C         19.81577        18.46239        -0.08265
C         21.02633        20.58680        -0.13405
C         19.81115        21.32773        -0.21635
C         20.99727        23.51599        -0.30584
C         19.80361        22.76476        -0.29584
C         20.97433        24.90883        -0.37155
C         19.77145        25.61737        -0.43019
C         21.01192        27.85257        -0.42008
C         19.74137        27.10297        -0.72746
C         21.05048        29.10902         0.04147
C         19.82698        29.85275         0.43632
C         20.98418        32.08486         0.44278
C         19.79652        31.33806         0.38677
C         20.95287        33.47661         0.46334
C         19.73411        34.17602         0.47060
C         20.87035        36.41086         0.27290
C         19.70479        35.64568         0.49576
C         20.83010        37.80813         0.31518
C         19.63497        38.47214         0.55915
O          5.56055        10.26335         1.74422
O         10.25194        12.71354         1.66754
O         12.20873         4.86096         2.06213
O         16.87501         4.56384        -0.89418
O          3.82993        36.81495         2.61482
O          8.54385        19.79219        -2.47867
O          6.97901        17.00469         1.22444
O         12.70923        22.68814         0.94492
O         19.19849        29.28759         1.65052
O         17.89851        16.74719         1.37995
O         16.16733        32.19284        -1.66232
H         15.42660        32.76841        -1.95006
O          2.30432        22.98946         0.81463
H          1.51501        22.49057         1.11694
O         16.22952         7.76373         2.33379
H         16.19073         8.69702         2.63233
O         11.01605        10.34708         2.22775
H         10.47961        11.08204         2.60953
O         17.30577        35.37720         2.56780
H         17.29582        36.28223         2.94686
O          5.94959         7.67573        -1.67102
H          6.79787         7.27896        -1.99251
O         15.88232        24.55031        -2.11145
H         15.79942        25.40144        -2.59060
O         15.88878        28.94993         1.82362
H         16.75059        28.60134         2.14149
O          9.57110        39.11214        -0.76344
H          9.24454        38.40109        -1.36344
O          0.75590        27.93582        -2.41219
H          1.45905        28.46509        -2.84505
O          8.56513        29.36372        -2.60256
H          9.31014        28.81774        -2.94869
O         13.74613        15.94247        -2.32534
H         14.44251        15.25861        -2.43594
O          8.82055        37.28169         2.31598
H          8.02373        36.80747         2.63562
O         15.09664        18.32880        -2.43124
H         14.51752        17.58322        -2.73445
O         11.32180        27.85024        -2.48989
H         12.17242        28.31272        -2.65138
O          9.75246        16.65507        -2.49880
H         10.57150        16.99180        -2.92224
O          5.03600        29.40100         1.58384
H          5.83699        29.83988         1.94191
O          3.51543        16.62188         1.80431
H          3.68659        17.56790         1.99935
O          0.83597         6.04916        -1.27814
H          0.85183         5.07679        -1.40673
O         16.04595        23.75687         1.44701
H         15.91388        22.91334         1.92755
O          8.39002        36.72505        -1.30762
H          8.41043        35.90179        -1.84068
O         12.54037        21.67354        -2.57090
H         12.66879        20.83209        -3.05771
O         11.31895         7.44819        -1.49512
H         10.45435         7.09632        -1.82228
O          8.74443        12.05905        -1.65336
H          7.90118        11.73497        -2.03486
O          9.88963        31.71278        -2.24032
H          9.26411        31.06594        -2.65962
O          0.78211        25.22106        -2.77780
H          0.66328        26.20003        -2.88478
O          4.87015        22.64293        -2.87932
H          5.68336        22.15885        -3.14137
O          8.63349         7.50130        -1.73468
H          8.71755         8.38928        -2.14809
O         13.43084        25.11448         1.60745
H         12.93399        24.34002         1.96072
O         19.60838        27.19300        -2.20217
H         18.89623        26.57169        -2.46681
H          1.24970         2.51346         1.38808
H         -0.85341         3.82286         1.65719
H         -0.97547         6.18688         1.01033
H         -1.01975         7.99938         0.14125
H         -1.04417        10.43725         0.14625
H         -1.02198        12.34665         0.19146
H         -0.99399        14.76760        -0.03412
H         -0.93765        16.51065        -0.84591
H         -0.92469        18.90609        -1.27230
H         -0.91652        20.80024        -1.50711
H         -0.87067        23.23939        -1.85074
H         -0.75811        24.99481        -0.09677
H         -0.74101        27.44159         0.24716
H         -0.96143        29.41508        -0.55140
H         -0.97328        31.75087         0.19584
H         -0.97312        33.50293         0.91618
H         -0.95515        35.91742         1.36461
H          0.22482        38.04714         1.36596
H          3.68186         2.47398         1.14144
H          2.29132        39.37685         1.20778
H          6.14303         2.46465         1.04097
H          4.82941        39.41589         0.78941
H          8.57312         2.44729         0.90067
H          7.27818        39.46390         0.92699
H         10.90786         2.40209         0.18697
H          9.88318        39.35909         1.25834
H         13.71208         2.21409         0.73652
H         12.26023        39.48282         0.81337
H         16.03691         2.54158         1.65341
H         14.72301        39.48995         0.93727
H         18.70704         2.23005         0.64069
H         17.18105        39.50591         0.97343
H         20.52939         3.63815         0.02080
H         21.66866         5.59808        -0.51217
H         21.81755         8.03917        -0.59800
H         21.86825        10.02672        -0.59265
H         21.89114        12.45934        -0.63774
H         21.90944        14.36679        -0.61995
H         21.95087        16.78772        -0.57868
H         21.98991        18.68726        -0.02486
H         21.98960        21.11311        -0.11245
H         21.97230        23.01310        -0.27242
H         21.93275        25.44437        -0.39378
H         21.95770        27.37368        -0.71352
H         22.02539        29.60492         0.16323
H         21.95569        31.57474         0.48999
H         21.90477        34.02125         0.51721
H         21.82812        35.91629         0.06339
H         21.75259        38.38188         0.14890
H         19.60180        39.57061         0.58442
