         729
 CSIRO Nanostructure Databank - Neutral Graphene Oxide Data Set
C         23.39467        24.57360        -2.64085
C         22.20993        25.27463        -2.83482
C         23.31929        27.37299        -2.28071
C         22.17259        26.66043        -2.66344
C         23.28895        28.82276        -2.13258
C         22.10418        29.56317        -2.35402
C         23.26163        31.66743        -1.95879
C         22.08354        30.94349        -2.25802
C         23.26674        33.12834        -1.86408
C         22.14169        33.88263        -2.20279
C         23.22138        35.97285        -1.54317
C         22.12712        35.27594        -2.06709
C         23.20888        37.43159        -1.43115
C         22.17300        38.20475        -1.98723
C         23.20839        40.25994        -1.19109
C         22.18239        39.59094        -1.86883
C         23.21589        41.77150        -1.22994
C         21.86425        42.40900        -1.02559
C         22.95680        44.51797        -0.44930
C         21.77811        43.72709        -0.71624
C         22.91742        45.94659        -0.35254
C         21.70747        46.66788        -0.52187
C         22.89142        48.76770        -0.32871
C         21.69892        48.05441        -0.48430
C         25.91052        23.12507        -2.31656
C         25.81728        24.51640        -2.06174
C         24.57560        25.24030        -2.25464
C         25.71244        27.34576        -1.61484
C         24.54218        26.65822        -2.05529
C         25.69247        28.78685        -1.45956
C         24.46900        29.52831        -1.78397
C         25.74310        31.67637        -1.52856
C         24.44154        30.94099        -1.70898
C         25.61791        33.11579        -1.07427
C         24.42875        33.81795        -1.36648
C         25.49545        35.88927        -0.54763
C         24.38241        35.23446        -1.15161
C         25.34217        37.30142        -0.15457
C         24.26058        38.09647        -0.75883
C         25.42678        40.17996        -0.04904
C         24.27730        39.50925        -0.63894
C         25.30864        41.61966         0.24275
C         24.22375        42.41546        -0.31856
C         25.33016        44.56219         0.25938
C         24.17571        43.81910        -0.16530
C         25.36213        45.96828         0.12244
C         24.13413        46.67462        -0.14589
C         25.37988        48.82756        -0.12106
C         24.12006        48.09803        -0.17690
C         25.41634        50.23791        -0.18498
C         28.25760        23.08387        -1.65369
C         27.08968        22.43376        -2.12205
C         28.19356        24.48307        -1.39039
C         26.97415        25.19973        -1.60457
C         28.05873        27.27049        -0.82634
C         26.91471        26.61520        -1.33965
C         27.93245        28.68420        -0.33421
C         26.79632        29.45074        -0.95828
C         28.02135        31.64970        -0.65066
C         26.69277        30.91624        -0.61120
C         27.97829        33.09026        -0.32492
C         26.75075        33.78982        -0.54147
C         27.87215        35.89083         0.23722
C         26.68526        35.19759        -0.25617
C         27.83332        37.28630         0.45946
C         26.57891        38.03630         0.37223
C         27.83218        40.23704         0.56725
C         26.59041        39.51517         0.31042
C         27.83795        41.65368         0.65939
C         26.55063        42.35775         0.74785
C         27.84449        44.59452         0.74831
C         26.51626        43.85415         0.74469
C         27.83849        46.00006         0.31437
C         26.61123        46.68248         0.13750
C         27.83571        48.81876        -0.22250
C         26.61190        48.11803        -0.08051
C         27.85208        50.23043        -0.30979
C         26.61619        50.92145        -0.25042
C         30.74102        20.26713        -1.42044
C         29.58231        20.96383        -1.67436
C         30.64758        23.04790        -0.97758
C         29.49243        22.36272        -1.43660
C         30.58122        24.46657        -0.73810
C         29.36144        25.17173        -0.92936
C         30.47029        27.28069        -0.26198
C         29.28682        26.57771        -0.64966
C         30.43543        28.72612        -0.13918
C         29.24729        29.41392        -0.29424
C         30.44356        31.61516         0.11735
C         29.27931        30.88067        -0.40133
C         30.37460        32.99985         0.33137
C         29.14188        33.75781         0.13107
C         30.28569        35.78503         1.09914
C         29.09185        35.15605         0.39595
C         30.30360        37.32417         1.12279
C         29.02739        38.05975         0.85782
C         30.29646        40.22530         0.73066
C         29.06226        39.53119         0.65844
C         30.30317        41.65534         0.63521
C         29.06696        42.37849         0.64806
C         30.29669        44.52126         0.49986
C         29.08890        43.81308         0.63019
C         30.29752        45.96232         0.36165
C         29.08450        46.65061         0.18024
C         30.28327        48.85959         0.19420
C         29.12383        48.04003        -0.40129
C         30.40828        50.20892        -0.52070
C         29.10377        50.97497        -0.42416
C         30.41155        53.03030        -0.61555
C         29.16128        52.34137        -0.54757
C         33.10922        18.76069        -0.59586
C         33.08604        20.17577        -0.55886
C         31.90239        20.91948        -0.92266
C         33.04327        23.01294        -0.27787
C         31.86302        22.32622        -0.73608
C         32.99218        24.46590        -0.15462
C         31.75580        25.17123        -0.34573
C         32.92502        27.32519         0.02165
C         31.70466        26.58851        -0.15836
C         32.92309        28.74328         0.11996
C         31.66666        29.46868         0.08495
C         32.88784        31.54339         0.76907
C         31.64138        30.84967         0.28346
C         32.81085        33.03005         0.57264
C         31.61799        33.71786         0.57827
C         32.76976        35.90687         0.82239
C         31.60864        35.17393         0.70135
C         32.76823        37.34823         0.95241
C         31.58282        38.07514         0.98116
C         32.76561        40.25547         0.80017
C         31.56108        39.52211         0.86543
C         32.78574        41.67477         0.59305
C         31.53767        42.37623         0.56424
C         32.76321        44.51526         0.44210
C         31.53414        43.79801         0.47817
C         32.75241        45.94259         0.48074
C         31.55860        46.67586         0.39193
C         32.76927        48.85353         0.45176
C         31.59633        48.11783         0.30354
C         32.80486        50.29937         0.22490
C         31.63491        50.98717        -0.10527
C         32.91524        53.14412        -0.52190
C         31.61384        52.39855        -0.36502
C         32.89092        54.57863        -0.05324
C         35.31208        18.71046         0.43253
C         34.18207        18.04801        -0.09288
C         35.36245        20.11601         0.38828
C         34.23706        20.86733        -0.07038
C         35.37820        23.02465         0.66974
C         34.21284        22.30078         0.01312
C         35.44155        24.49691         0.32134
C         34.16324        25.19168         0.06835
C         35.38732        27.32338        -0.13292
C         34.16821        26.62018         0.00286
C         35.38312        28.73597        -0.06552
C         34.15367        29.44487         0.14217
C         35.30164        31.60735         0.03154
C         34.15828        30.88851         0.26665
C         35.31220        33.09117         0.06479
C         34.05062        33.80903         0.38488
C         35.32056        35.94862         0.63453
C         34.08488        35.17676         1.02030
C         35.31871        37.34115         0.73861
C         34.06423        38.04692         1.07261
C         35.30880        40.27422         0.66745
C         34.05818        39.57921         1.01290
C         35.29438        41.69119         0.44383
C         34.01427        42.39982         0.47177
C         35.24546        44.57393         0.30532
C         34.00609        43.81629         0.40332
C         35.28835        45.93068         0.56210
C         34.00941        46.63264         0.81507
C         35.30223        48.87428         0.95067
C         33.99215        48.14622         0.88922
C         35.30532        50.36636         0.72670
C         34.04903        51.05061         0.33156
C         35.33824        53.14965         0.14818
C         34.10005        52.40333         0.05125
C         35.33362        54.56005         0.10301
C         34.04836        55.24211         0.14916
C         37.69440        15.74407         1.06710
C         36.51663        16.43498         0.94745
C         37.74028        18.56843         0.73999
C         36.43139        17.93043         1.13731
C         37.82072        20.01656         0.73266
C         36.58389        20.83863         0.95172
C         37.88318        22.87845         0.09787
C         36.71116        22.29892         0.49630
C         37.91584        24.32311        -0.52255
C         36.71315        25.16274        -0.08126
C         37.89639        27.35926        -0.29370
C         36.63184        26.59448        -0.60560
C         37.84982        28.76630        -0.27209
C         36.61269        29.45469        -0.20922
C         37.86375        31.70589        -0.09334
C         36.56680        30.92179        -0.28788
C         37.82602        33.13798         0.27021
C         36.57638        33.83522         0.25478
C         37.79643        35.97035         0.16481
C         36.52610        35.22273         0.41846
C         37.77209        37.41520         0.55514
C         36.53578        38.09864         0.64429
C         37.76485        40.21642         0.47670
C         36.52291        39.53483         0.63259
C         37.74416        41.64282         0.09495
C         36.48023        42.38504         0.18669
C         37.75915        44.61312        -0.09971
C         36.43481        43.83757        -0.26796
C         37.74488        45.99131         0.44028
C         36.54736        46.68420         0.62059
C         37.76310        48.85689         0.73140
C         36.56881        48.12242         0.79786
C         37.80109        50.28718         0.53456
C         36.58982        51.03101         0.43274
C         37.80054        53.16611         0.22918
C         36.57722        52.43514         0.25395
C         37.80081        54.56013         0.20978
C         36.57206        55.29197         0.12786
C         37.85872        57.40056        -0.00965
C         36.64262        56.70173         0.01675
C         40.27847        14.24748         1.47038
C         40.22095        15.66595         1.39226
C         38.98722        16.35875         1.16910
C         40.23914        18.57958         1.16550
C         39.05339        17.78608         0.82762
C         40.24629        19.94270         0.96727
C         39.03646        20.61942         0.56169
C         40.45228        22.46643        -0.11715
C         39.06474        21.91169        -0.20036
C         40.45619        24.66731        -0.35175
C         39.16728        25.20200        -0.29170
C         40.34631        27.32030         0.10497
C         39.12091        26.62505        -0.13428
C         40.40799        28.77473        -0.04211
C         39.11514        29.54100        -0.28246
C         40.27441        31.59256         0.50900
C         39.11543        30.96129         0.10689
C         40.24291        33.02746         0.99494
C         39.01925        33.79541         0.55155
C         40.22842        35.91703         0.66999
C         39.04261        35.22853         0.60030
C         40.26134        37.38197         1.02601
C         38.98463        38.10844         0.65607
C         40.26444        40.24017         0.72284
C         38.97681        39.51572         0.58819
C         40.28710        41.70778         0.49248
C         39.05301        42.37628        -0.03889
C         40.33154        44.55709         0.34277
C         39.07765        43.87749        -0.05934
C         40.31540        45.95178         0.51150
C         39.02452        46.62264         0.76955
C         40.32260        48.86107         0.64016
C         39.04850        48.16458         0.88513
C         40.30499        50.26909         0.46107
C         39.05745        50.94731         0.38116
C         40.36087        53.12438         0.09094
C         39.05271        52.39175         0.09545
C         40.36431        54.57621         0.43158
C         39.05959        55.31659         0.41846
C         40.37154        57.45233         0.16505
C         39.09350        56.76930         0.18029
C         40.43256        58.85689         0.10537
C         42.69064        14.32024         1.71623
C         41.49037        13.59992         1.64878
C         42.69849        15.72605         1.65500
C         41.44977        16.39800         1.54489
C         42.75138        18.65252         1.71963
C         41.40196        17.85379         1.69614
C         42.73416        20.06980         1.38489
C         41.40073        20.80090         1.46853
C         42.65359        22.96230         0.99552
C         41.47754        22.08806         0.67530
C         42.71326        24.45642         0.79660
C         41.58634        25.25179         0.24274
C         42.77299        27.35440         0.74695
C         41.54854        26.64645         0.42498
C         42.75504        28.74862         0.80121
C         41.57442        29.48757         0.49917
C         42.75449        31.62800         0.82448
C         41.52261        30.88530         0.64442
C         42.74225        33.06596         0.66313
C         41.52754        33.74632         0.65623
C         42.80161        35.95752         0.36693
C         41.47612        35.17764         0.41270
C         42.78418        37.40464         0.59175
C         41.53233        38.11811         0.63883
C         42.80721        40.21345         0.20616
C         41.53511        39.49231         0.61202
C         42.78939        41.70612         0.43073
C         41.58912        42.40731         0.36311
C         42.79762        44.52694         0.41693
C         41.56362        43.83027         0.38603
C         42.76413        45.98028         0.25876
C         41.51680        46.70589         0.51487
C         42.80451        48.84748         0.61736
C         41.53938        48.12979         0.58918
C         42.80175        50.28222         0.58814
C         41.57346        50.98554         0.42718
C         42.82739        53.12054         0.34356
C         41.61155        52.39063         0.32576
C         42.83309        54.56032         0.21914
C         41.63285        55.30271         0.24239
C         42.87434        57.41687         0.13537
C         41.61799        56.71745         0.18451
C         42.85891        58.83554         0.07132
C         41.65884        59.53134         0.06067
C         45.20529        15.81172         1.45654
C         43.96667        16.47688         1.59325
C         45.19593        18.62064         1.33252
C         43.98444        17.89148         1.53636
C         45.18086        20.04038         1.17823
C         43.94133        20.73779         1.16326
C         45.23217        22.99398         1.20682
C         43.94767        22.22949         1.24618
C         45.22270        24.46208         0.99289
C         44.01840        25.17145         0.88605
C         45.24316        27.28619         1.04805
C         44.01166        26.60093         0.91182
C         45.25971        28.74495         1.05496
C         43.96389        29.48464         1.31812
C         45.19348        31.65520         0.83623
C         43.96952        30.94917         0.94777
C         45.23301        33.05980         0.73931
C         44.00046        33.78752         0.64242
C         45.24197        35.91639         0.78839
C         44.02504        35.19189         0.60227
C         45.21382        37.32990         0.87682
C         44.01025        38.08331         0.77984
C         45.20840        40.25061         0.97579
C         44.04217        39.53300         0.75749
C         45.24547        41.69564         0.81793
C         44.02360        42.40713         0.57063
C         45.25388        44.56872         0.75142
C         44.02247        43.83550         0.53172
C         45.26056        45.95645         0.82946
C         44.09746        46.73826         0.44893
C         45.27418        48.86999         0.94139
C         44.02974        48.17414         0.73161
C         45.27796        50.31076         0.82600
C         44.04070        50.99828         0.62061
C         45.30302        53.12069         0.34896
C         44.05599        52.41541         0.46214
C         45.30377        54.50999         0.11731
C         44.08519        55.25166         0.12993
C         45.38760        57.33212         0.28276
C         44.10093        56.67748         0.13960
C         46.40499        16.51451         1.37854
C         47.68520        18.67038         1.51100
C         46.43926        17.91946         1.35265
C         47.72729        20.08012         1.33285
C         46.46715        20.75863         0.95504
C         47.78966        22.99457         1.15292
C         46.51090        22.26131         0.93809
C         47.73325        24.41933         1.03506
C         46.47763        25.13529         0.99194
C         47.72099        27.25528         0.93434
C         46.47243        26.55882         1.01869
C         47.74583        28.72912         1.24277
C         46.43640        29.43018         0.97847
C         47.73429        31.64178         0.67867
C         46.43916        30.88559         0.71400
C         47.72927        33.10889         0.78731
C         46.49073        33.78559         0.77271
C         47.72360        35.93801         0.81578
C         46.48142        35.20740         0.84641
C         47.72566        37.32575         0.93353
C         46.46166        38.02319         1.21333
C         47.74964        40.24525         1.40222
C         46.43404        39.52090         1.39243
C         47.73673        41.71576         1.20661
C         46.44757        42.42373         0.98396
C         47.71258        44.56563         1.10996
C         46.47840        43.83617         0.97905
C         47.73645        45.95597         1.16911
C         46.43110        46.67571         1.43728
C         47.72855        48.83601         1.36865
C         46.45616        48.14581         1.12334
C         47.75012        50.34655         1.21697
C         46.49912        51.03312         0.84158
C         47.80710        53.10094         0.42952
C         46.53887        52.40546         0.52354
C         47.84051        54.46293         0.07506
C         46.57577        55.21723        -0.27607
C         46.55480        56.65494         0.18056
C         49.89359        18.72770         2.47583
C         48.81801        17.99298         2.00539
C         49.88697        20.12112         2.35036
C         48.89247        20.84560         1.65040
C         50.25344        23.06365         1.32276
C         48.99744        22.30914         1.39846
C         50.20023        24.44246         0.92093
C         48.95373        25.13621         0.87346
C         50.08565        27.31412         0.15379
C         48.90573        26.56985         0.73081
C         50.14971        28.78857         0.50804
C         48.97967        29.45134         0.76709
C         50.28083        31.67264         0.80323
C         48.99372        30.90931         0.98133
C         50.21505        33.12118         0.55248
C         48.97239        33.81660         0.69400
C         50.18777        35.95655         0.42249
C         48.96575        35.23160         0.63050
C         50.20213        37.36908         0.41816
C         48.90244        38.12762         0.46450
C         50.29678        40.22414         0.85762
C         49.02601        39.47133         1.15521
C         50.26288        41.68315         0.73709
C         48.94522        42.42694         0.64148
C         50.19128        44.58049         0.74225
C         49.01563        43.81436         1.28499
C         50.20434        45.97285         0.82132
C         48.97612        46.68648         1.11242
C         50.22557        48.81443         1.15102
C         48.99866        48.09574         1.19604
C         50.24669        50.27547         1.08759
C         49.04206        51.00481         0.95588
C         50.29285        53.06658         0.48471
C         49.04370        52.38878         0.63088
C         50.27837        54.43237         0.11094
C         49.08363        55.10273        -0.09683
C         53.09905        20.72286         2.33188
C         51.84302        21.34312         2.29389
C         52.83836        23.31334         1.34650
C         51.56881        22.50618         1.54981
C         52.67528        24.55259         0.53904
C         51.41750        25.19340         0.58141
C         52.56719        27.27606        -0.01150
C         51.38314        26.57837         0.29678
C         52.62504        28.75058         0.13525
C         51.38596        29.52048         0.31999
C         52.63934        31.65083        -0.02356
C         51.46721        30.90854         0.39537
C         52.60545        33.07267        -0.07952
C         51.39886        33.80800         0.22730
C         52.59915        35.94660        -0.12919
C         51.39958        35.23745         0.17247
C         52.61912        37.36940        -0.09832
C         51.41689        38.08408         0.21156
C         52.65114        40.22542         0.03769
C         51.45335        39.50802         0.29026
C         52.64791        41.67182         0.09961
C         51.41272        42.35866         0.35518
C         52.62647        44.60916        -0.00666
C         51.31787        43.83463         0.19214
C         52.66539        46.00750         0.44446
C         51.44846        46.70421         0.73601
C         52.72483        48.77210         1.30457
C         51.44237        48.09384         1.03094
C         52.76345        50.29057         1.47807
C         51.48808        50.97234         1.01186
C         52.79479        53.02040         0.67995
C         51.51730        52.34766         0.73571
C         54.17777        21.25000         1.59719
C         55.19148        23.16309         0.36827
C         54.08081        22.51206         1.02683
C         55.06115        24.46909        -0.15670
C         53.82264        25.18917        -0.01436
C         54.88917        27.29800        -0.91749
C         53.75088        26.57930        -0.29625
C         54.99439        28.76035        -0.84271
C         53.88411        29.50460        -0.22950
C         54.91099        31.64156        -0.99731
C         53.81114        30.96127        -0.44169
C         54.89438        33.07172        -1.00342
C         53.76438        33.78691        -0.50374
C         54.97589        35.92983        -0.79457
C         53.78159        35.21949        -0.48117
C         55.02550        37.35859        -0.69311
C         53.83834        38.09067        -0.33682
C         55.15812        40.24456        -0.15057
C         53.84452        39.50632        -0.25778
C         55.06385        41.72248        -0.46717
C         53.86024        42.40720        -0.17414
C         55.08770        44.54446        -0.12787
C         53.86953        43.83956        -0.10082
C         55.12127        45.95152         0.18486
C         53.92278        46.63089         0.53079
C         55.25893        48.75742         0.82285
C         53.99726        48.01747         1.02379
C         55.22920        50.20752         0.79188
C         54.03827        50.92300         0.93250
C         53.98136        52.34424         0.73872
C         57.61819        23.23638        -0.07154
C         56.47831        22.54720         0.33884
C         57.55212        24.50720        -0.65369
C         56.17924        25.00149        -1.04326
C         57.37035        27.28927        -1.47070
C         56.13293        26.51101        -1.28109
C         57.27242        28.66209        -1.70869
C         56.08989        29.42540        -1.37571
C         57.15747        31.58766        -1.99904
C         56.08928        30.89728        -1.46606
C         56.98777        33.05907        -2.35492
C         56.03402        33.81107        -1.45464
C         57.42473        35.90127        -1.40059
C         56.10390        35.18740        -1.27654
C         57.33043        37.39948        -1.57214
C         56.22218        38.07229        -1.06538
C         57.41651        40.33474        -1.55318
C         56.33068        39.53887        -0.83339
C         57.33848        41.84280        -1.50452
C         56.24406        42.45397        -0.82427
C         57.47569        44.61472        -0.67244
C         56.27480        43.86866        -0.54055
C         57.54184        45.98346        -0.24881
C         56.37556        46.64117         0.21478
C         57.74350        48.74615         0.74646
C         56.41836        48.04383         0.55947
C         57.63780        50.18891         0.30948
C         56.47157        50.85997         0.38945
C         60.00422        24.62599        -0.99879
C         58.72811        25.24003        -1.05049
C         59.83342        27.31931        -1.81601
C         58.64485        26.60888        -1.47359
C         59.75186        28.71008        -2.25114
C         58.42792        29.35374        -2.30987
C         59.63235        31.57795        -2.70784
C         58.34917        30.87067        -2.52450
C         59.61791        33.05110        -2.88446
C         58.29119        33.80324        -2.64000
C         59.53766        35.91677        -2.70573
C         58.39779        35.22714        -2.32808
C         59.48014        37.37496        -2.80735
C         58.40418        38.11227        -2.22122
C         59.17410        40.06995        -3.40584
C         58.31828        39.52832        -2.43112
C         59.34504        42.36441        -2.94420
C         58.42006        42.69531        -1.91273
C         59.76587        44.76748        -1.58524
C         58.57403        44.01336        -1.35584
C         59.92044        46.07508        -0.96050
C         58.79616        46.70046        -0.35433
C         60.16439        48.65984         0.11609
C         58.92133        48.02625         0.13345
C         61.15291        25.32435        -1.34680
C         61.07489        26.65933        -1.74729
C         60.86043        29.45117        -2.60248
C         60.79252        30.85564        -2.83799
C         60.84216        33.84780        -2.82030
C         60.77149        35.20427        -2.92910
C         60.38534        38.00642        -3.67317
C         60.19295        39.33593        -4.02565
C         60.47814        43.12246        -3.21759
C         60.73313        44.28037        -2.47682
C         61.15940        46.74931        -0.97683
C         61.28538        48.01609        -0.42200
O         39.73506        52.76901        -1.18831
O         28.87662        31.32206        -1.78394
O         59.02499        41.37489        -3.87232
O         25.52978        37.52281         1.27829
O         47.13882        31.15858        -0.58242
O         34.15400        38.85198         2.29613
O         43.55002        46.44207        -0.88504
O         53.46145        48.12366         2.41250
O         58.75136        33.48349        -3.99430
O         58.07126        29.92940        -3.61715
O         46.31729        38.66246         2.56830
O         47.69346        49.71746         2.55539
O         38.47924        41.80661        -1.23965
O         46.50047        21.51139        -0.32765
O         53.63276        29.10355         1.16968
O         29.49188        37.78130         2.26378
O         33.85366        47.33528         2.10435
O         39.71060        54.90076         1.70308
O         39.05157        47.29807         2.06709
O         49.97465        39.60350         2.21415
O         50.85818        20.77543         3.10226
O         36.34570        25.14292         1.32295
O         42.09066        35.57918        -0.87093
O         34.49122        33.73472        -1.01107
O         37.29227        31.48771        -1.43892
O         51.71467        44.33007        -1.13509
O         44.61520        22.63592         2.49679
O         38.58106        44.47488        -1.31365
O         47.88198        41.15844         2.53929
O         49.73417        31.33805         2.15988
O         25.57324        41.83789         1.68784
O         42.32189        23.86063         2.11664
O         35.29970        49.80027         2.09238
O         38.39174        18.03832        -0.46065
O         41.98383        18.33451         2.93543
O         40.16143        41.19531         1.87434
O         40.00989        29.22605        -1.39493
O         55.13225        26.82384        -2.30862
O         27.08319        44.38486         1.98917
O         40.67358        23.48143        -1.04588
O         29.87772        49.12980         1.56226
H         30.66326        49.42182         2.07103
O         48.67296        42.58821        -0.77445
H         49.39743        43.11341        -1.17842
O         41.11906        21.10308         2.85682
H         41.74506        21.80314         3.14420
O         30.65434        49.98918        -1.95521
H         30.81004        50.87073        -2.35888
O         43.83048        29.47853         2.78683
H         43.87741        28.54447         3.08434
O         26.37079        31.71537        -2.84217
H         25.76103        32.17217        -3.45798
O         29.29137        47.78622        -1.81997
H         29.60924        48.61617        -2.25130
O         36.43268        20.83893         2.41165
H         35.74230        21.52521         2.62261
O         57.99644        48.76509         2.19232
H         57.22196        49.18826         2.62046
O         48.57944        38.50732        -0.93511
H         48.53071        37.68286        -1.46509
O         23.62725        42.10700        -2.61514
H         23.54130        43.07991        -2.71205
O         26.17902        30.99591         0.74178
H         26.61189        30.27312         1.25979
O         35.04419        23.01802         2.10273
H         35.56011        23.75644         2.50379
O         36.53463        26.49663        -2.07404
H         36.63155        27.40263        -2.43993
O         52.80105        50.55446         2.91390
H         53.24567        49.77557         3.32538
O         47.88073        28.77394         2.71847
H         48.34358        29.60571         2.96308
O         53.13362        23.86233         2.71481
H         52.34625        24.37870         2.99364
O         57.58962        39.86421        -0.14573
O         55.92610        24.37701        -2.34922
H         55.29869        24.97605        -2.81984
O         32.92969        31.34417         2.23154
H         32.19684        31.86468         2.62521
O         40.14691        32.96112         2.45910
H         40.95775        32.51912         2.79054
O         40.27380        37.38572         2.49807
H         40.29404        38.32096         2.79640
O         46.23924        46.61629         2.90652
H         46.79629        47.31957         3.30633
O         55.45830        40.22341         1.28619
H         56.43579        40.32586         1.36399
O         49.83873        27.30506        -1.30255
H         48.95908        27.70971        -1.46207
O         49.22410        43.61325         2.70649
H         49.01198        44.44765         3.17369
O         46.56606        55.26805        -1.75429
H         45.74689        55.73760        -2.02104
O         37.93094        36.01070        -1.30719
H         37.75419        35.10751        -1.64988
O         37.78523        24.08932        -1.94733
H         37.49200        24.94044        -2.36191
O         34.18460        34.93949         2.45798
H         34.11019        35.80372         2.91655
O         33.14036        53.19675        -1.98047
H         33.98500        53.67542        -2.12425
O         42.88910        40.07139        -1.25972
H         42.90921        39.11144        -1.46390
O         36.16693        43.76776        -1.69838
H         37.03171        43.55605        -2.12607
O         30.13552        35.34232         2.48762
H         29.63009        36.05718         2.94722
O         27.53141        28.57509         1.12122
H         26.85089        27.86827         1.17420
O         38.85087        21.52736        -1.59039
H         38.74206        22.36331        -2.10335
O         58.03362        35.72081        -0.05382
H         58.66467        36.45899         0.08838
O         36.24039        18.12475         2.56554
H         36.26403        19.10425         2.74053
O         56.26407        33.02332        -3.62649
H         56.93640        32.82706        -4.32111
H         23.39167        23.48620        -2.78894
H         21.29852        24.73772        -3.13153
H         21.22271        27.18193        -2.83717
H         21.16829        29.04784        -2.60578
H         21.13451        31.46923        -2.42680
H         21.24164        33.39186        -2.59590
H         21.21818        35.81452        -2.36529
H         21.35232        37.72754        -2.53821
H         21.37839        40.16799        -2.34543
H         20.95008        41.83051        -1.21986
H         20.78714        44.19802        -0.65248
H         20.76161        46.13270        -0.67655
H         22.85046        49.86445        -0.33631
H         20.75191        48.59919        -0.60137
H         25.03697        22.57013        -2.68212
H         24.48443        50.81807        -0.18074
H         27.10399        21.35816        -2.34030
H         26.59440        52.01868        -0.28333
H         30.75384        19.18597        -1.60934
H         28.71331        20.41159        -2.05462
H         30.39176        54.10690        -0.83336
H         28.24632        52.94818        -0.58844
H         32.24758        18.20292        -0.98496
H         31.93248        55.11301         0.01385
H         34.14356        16.95014        -0.09403
H         34.02571        56.31064         0.40701
H         37.64137        14.64434         1.08133
H         35.58194        15.85782         0.88454
H         37.81741        58.48657        -0.17403
H         35.71631        57.28104        -0.09756
H         39.35810        13.65663         1.37180
H         39.50718        59.44820         0.10124
H         43.62915        13.76138         1.82547
H         41.51775        12.50314         1.71047
H         43.80111        59.39647         0.01597
H         41.66739        60.62916         0.01213
H         45.24730        14.71480         1.44082
H         45.41248        58.40086         0.53925
H         47.33832        15.93806         1.32561
H         47.50528        57.18925         0.32230
H         50.72627        18.24114         2.99923
H         48.81291        16.90339         2.13134
H         51.21912        54.97760        -0.03995
H         49.11360        56.15186        -0.42155
H         53.21671        19.79135         2.89984
H         52.82220        54.10805         0.53256
H         55.09500        20.65206         1.51187
H         54.91073        52.91467         0.60564
H         58.59147        22.75874         0.10707
H         56.61106        21.54346         0.76272
H         58.54964        50.72180         0.00232
H         56.45280        51.92497         0.12114
H         60.09880        23.57472        -0.69892
H         60.27484        49.66428         0.54690
H         62.12996        24.82356        -1.30761
H         62.00013        27.18628        -2.01337
H         61.85489        28.98716        -2.63675
H         61.73524        31.37469        -3.05995
H         61.81818        33.34996        -2.74073
H         61.70339        35.78568        -2.97992
H         61.19176        37.42973        -4.14440
H         60.83654        39.82720        -4.76581
H         61.14845        42.81948        -4.03192
H         61.64322        44.85617        -2.68743
H         62.04711        46.26577        -1.40574
H         62.26238        48.51856        -0.41485
