         280
 CSIRO Nanostructure Databank - Neutral Graphene Oxide Data Set
C         30.28321        31.65919        -0.81085
C         30.52377        32.89488        -0.87452
C         30.54891        35.98206        -0.23786
C         30.48391        37.20261         0.04093
C         30.58561        40.07978         1.32042
C         30.57673        41.23601         1.86301
C         32.66930        28.91613        -1.16733
C         31.50726        29.41001        -1.02446
C         32.94562        31.78689        -1.68329
C         31.01013        30.64203        -1.46165
C         32.87341        33.08794        -1.20740
C         31.63185        33.78689        -0.91484
C         32.84029        36.04405        -0.92446
C         31.60338        35.15528        -0.66126
C         32.84805        37.38981        -0.20647
C         31.64925        38.04089         0.21732
C         32.97959        40.03198         1.09840
C         31.63902        39.31854         0.81224
C         32.88161        41.58832         1.04073
C         31.59338        42.19664         1.82940
C         32.87714        44.16901         1.80893
C         31.77671        43.53494         2.08734
C         35.40519        27.27910        -0.41751
C         35.24785        28.62894        -1.09758
C         33.98254        29.35041        -0.69247
C         35.27100        31.66350        -0.67801
C         34.20395        31.00384        -1.57014
C         35.44493        33.13961        -1.01134
C         34.17010        33.89037        -1.36995
C         35.39670        36.07202        -0.96473
C         34.13396        35.24215        -0.63125
C         35.32329        37.41654        -0.27113
C         34.11625        38.04982        -0.05119
C         35.36251        40.26485         0.33792
C         34.04403        39.56295         0.09574
C         35.38018        41.64477         0.68532
C         34.21382        42.22843         1.47896
C         35.38185        44.54271         1.35376
C         34.13096        43.79006         1.45198
C         35.49611        46.00149         1.13312
C         37.83271        27.14564        -0.49175
C         36.46255        26.65028        -0.37126
C         37.82733        28.67488        -0.62064
C         36.53214        29.44096        -0.69245
C         37.84934        31.54270        -0.69000
C         36.53827        30.80618        -0.61202
C         37.89898        33.03685        -0.89335
C         36.62615        33.81874        -0.86694
C         37.87068        35.95953        -0.60149
C         36.68734        35.28034        -0.74891
C         37.84749        37.44965        -0.47571
C         36.60670        38.06664         0.16328
C         37.78476        40.30278         0.09253
C         36.56186        39.57967         0.10577
C         37.75873        41.72186         0.14764
C         36.57749        42.38061         0.52372
C         37.73453        44.61273         0.11486
C         36.63274        43.83581         0.85796
C         37.88835        46.09854         0.52417
C         36.59417        46.54849         0.92685
C         40.23811        24.37294         0.50129
C         39.19399        25.10013         0.26687
C         40.33656        27.13477         0.06024
C         38.99597        26.42966         0.04077
C         40.35634        28.61949        -0.11619
C         39.01211        29.34769         0.08228
C         40.38065        31.61692        -0.04032
C         39.07870        30.87586        -0.12100
C         40.50661        33.04788        -0.51774
C         39.22862        33.78437        -0.81546
C         40.48035        36.04472        -0.32163
C         39.20552        35.30094        -0.72696
C         40.39460        37.49234         0.05959
C         39.12990        38.20874        -0.22986
C         40.23434        40.35984         0.41260
C         39.03802        39.62487         0.16036
C         40.27433        41.72179         0.20148
C         39.02055        42.44094        -0.27253
C         40.24622        44.67238        -0.38046
C         39.08660        43.86879         0.28779
C         40.43138        46.01615         0.34355
C         39.08478        46.74623         0.50910
C         40.37514        48.85744         0.40725
C         39.38043        48.13729         0.61409
C         42.79856        24.44515         0.96993
C         41.49866        24.88604         0.70901
C         42.76844        27.22323         0.86191
C         41.44012        26.47866         0.88587
C         42.77237        28.60376         0.78168
C         41.64172        29.35609         0.18542
C         42.76595        31.60714         0.79674
C         41.67113        30.85541         0.13013
C         42.77679        33.01173         0.73906
C         41.83386        33.78232        -0.19390
C         42.68720        35.92298         0.77954
C         41.66289        35.26729         0.17161
C         42.63861        37.39020         1.03967
C         41.43458        38.15251         0.64800
C         42.70870        40.41017         1.02515
C         41.36362        39.62436         1.08372
C         42.83064        41.81717         0.52001
C         41.56582        42.43559         0.02310
C         42.89210        44.63027        -0.51966
C         41.56011        43.86830        -0.41691
C         42.77335        46.14572        -0.34319
C         41.57112        46.81432        -0.28108
C         42.81115        48.94268        -0.51119
C         41.42093        48.35807        -0.59034
C         43.84226        25.13286         1.17452
C         45.23772        27.26077         1.27778
C         44.00972        26.53059         1.17808
C         45.25410        28.68715         1.32444
C         43.88233        29.33688         1.51118
C         45.25115        31.63264         1.38681
C         43.86702        30.86583         1.39155
C         45.21227        33.08247         1.12311
C         43.96488        33.72997         1.05784
C         45.19532        35.92286         1.05678
C         43.89499        35.20007         1.36366
C         45.15733        37.37954         0.69075
C         43.93700        38.13597         1.18541
C         45.30266        40.33281         0.96640
C         43.98417        39.64576         1.11181
C         45.34579        41.87305         1.12694
C         44.01526        42.50795         0.59291
C         45.29215        44.79643         0.31290
C         44.01849        43.99365         0.32144
C         45.26009        46.16848        -0.35156
C         44.04697        46.83139        -0.51623
C         43.80500        48.22113        -0.72086
C         47.60517        27.38595         1.33625
C         46.54195        26.70789         1.29361
C         47.76368        28.77215         1.36869
C         46.47885        29.42953         1.36931
C         47.66356        31.55378         0.76814
C         46.46822        30.86455         1.24985
C         47.63755        33.08668         0.67657
C         46.42124        33.81112         1.04113
C         47.68369        35.99701         0.85617
C         46.39586        35.25283         1.00412
C         47.64123        37.48526         0.71704
C         46.45076        38.10516         0.98561
C         48.20856        40.53055         0.78940
C         46.35655        39.52075         1.29573
C         48.09200        42.00839         0.68409
C         46.57580        42.55282         0.37216
C         47.85392        44.70180        -0.16639
C         46.64599        44.10699         0.64943
C         47.54756        45.97672        -0.48290
C         46.52696        46.76453        -0.52941
C         50.30502        28.92340         1.07126
C         49.03728        29.55117         1.56554
C         50.07876        31.51237         0.24801
C         48.99040        30.89981         0.83139
C         50.06726        32.95956         0.04917
C         49.01261        33.70858         0.85562
C         50.20817        35.94819         0.12157
C         48.97875        35.24776         0.71356
C         49.85392        37.37592        -0.42431
C         48.99376        38.20486         0.55583
C         49.51451        40.14938        -1.26118
C         48.86391        39.64835         0.01604
C         49.55128        41.67979        -1.33923
C         49.01276        42.50531        -0.40328
C         49.87861        44.35676        -1.62091
C         49.20413        44.04245        -0.33558
C         51.31043        29.45958         0.58317
C         52.41918        31.56907        -0.56485
C         51.25133        30.63410        -0.35100
C         52.18515        32.75616        -0.86197
C         51.12435        33.65769        -0.51566
C         51.97913        35.94582        -1.47550
C         50.85818        35.05969        -1.00330
C         51.94994        37.17640        -1.56022
C         51.19566        38.20744        -0.77240
C         51.88099        40.17702        -2.12859
C         50.90503        39.53655        -1.44500
C         52.86144        40.78469        -2.66520
C         50.08047        42.21767        -2.66971
C         50.38020        43.66071        -2.51215
O         47.51036        40.05366         1.91130
O         38.49497        38.10202        -1.58902
O         43.38897        40.26745         2.32870
O         42.67425        33.71120        -1.31846
O         41.58227        42.82900        -1.44370
O         38.06267        27.82092        -1.77674
O         31.89652        31.21043        -2.45819
O         40.58894        27.72002        -1.24236
O         40.09707        35.87877        -1.72263
O         47.46991        32.27426        -0.51598
O         37.95920        32.10002        -2.02935
O         42.08715        30.09090        -1.03608
O         39.50490        31.52664         1.14025
O         48.61523        35.78926         2.02289
O         40.10030        33.29171        -1.87572
O         43.23013        37.71613         2.37862
O         36.43450        44.07689         2.28271
O         50.02278        41.57801        -3.69330
O         44.44830        31.39557         2.61126
O         44.40559        44.78227         1.49267
O         51.17095        36.05142         1.17844
H         50.68980        36.39426         1.96854
O         49.91762        34.88422        -2.05891
H         50.33487        34.35555        -2.76986
O         39.00087        42.48881        -1.72544
H         39.02542        41.56642        -2.05847
O         43.74784        35.19531         2.82454
H         43.61510        36.13244         3.11007
O         39.32781        43.66665         1.68318
H         39.63953        44.50417         2.10173
O         46.30161        42.34427        -1.01068
H         46.90125        42.89395        -1.55907
O         34.73136        30.71868        -2.82347
H         34.00153        30.60933        -3.46795
O         49.39999        33.41869         2.22335
H         49.11557        34.17898         2.78284
O         43.36144        44.52224        -1.88793
H         42.91949        43.73723        -2.29187
O         33.60835        39.96901        -1.23467
H         34.36844        39.87422        -1.84639
O         33.98203        29.45168         0.69034
H         33.11358        29.76802         1.01080
O         40.97195        26.64986         2.24370
H         41.69161        26.40129         2.86188
O         45.47293        42.16995         2.52172
H         44.74215        41.69117         2.97996
O         49.06234        37.14952        -1.58277
H         48.84657        38.00168        -2.03959
O         39.90651        44.98771        -1.73958
H         39.98236        44.14438        -2.24938
O         48.51891        42.51372         1.95543
H         47.83315        42.27746         2.61966
O         34.18682        34.97929         0.78211
H         33.43076        34.40383         1.02484
O         43.54725        29.05795         2.91702
H         43.97900        29.76968         3.44884
O         49.65049        38.25831         1.83107
H         49.08470        38.79113         2.43344
O         50.79722        30.19184        -1.60715
H         51.47449        29.61056        -2.00928
O         40.96770        39.57867         2.47525
H         41.77343        39.33184         2.98897
O         44.98815        37.45277        -0.76512
H         45.59556        36.81157        -1.19297
O         35.29944        28.38491        -2.47761
H         36.18625        28.01131        -2.69022
O         40.88953        45.74020         1.69926
H         41.03922        46.60109         2.14765
O         32.79612        36.34974        -2.34702
H         31.96604        36.84265        -2.52242
O         50.04139        44.36481         0.76238
H         49.60387        44.03177         1.58152
O         38.69689        29.13884         1.48406
H         39.08097        29.88925         1.99674
O         33.41757        39.59926         2.38927
H         32.87507        40.04119         3.07599
O         34.46983        41.90608         2.85714
H         35.29842        42.36968         3.11940
O         40.91745        48.49825        -1.88453
H         40.87067        49.44768        -2.11705
O         34.70091        31.76878         0.66185
H         35.38963        32.12195         1.26360
O         35.43265        36.38740        -2.38718
H         34.54743        36.75385        -2.63636
O         51.88297        38.53177         0.41336
H         52.05631        37.68406         0.89283
O         46.90311        44.37143         2.02196
H         46.03216        44.51035         2.46388
O         49.15070        29.85654         2.96523
H         49.30811        29.02141         3.45245
O         34.23255        34.08594        -2.80017
H         34.93279        34.76125        -2.98975
O         37.31502        44.59155        -1.25140
H         38.06838        44.91857        -1.80261
O         48.72722        39.68384        -2.39276
H         49.12128        40.10448        -3.20575
O         36.77949        37.72609         1.58385
H         35.98758        38.04145         2.07119
O         32.65990        42.03446        -0.28574
H         31.91856        41.52958        -0.68053
