         324
 CSIRO Nanostructure Databank - Neutral Graphene Oxide Data Set
C         30.64648        57.03366        -1.71878
C         30.63360        58.44422        -1.85193
C         29.46359        59.14237        -2.26394
C         30.66962        61.24957        -2.24959
C         29.49832        60.52163        -2.45998
C         32.95762        52.81052        -0.62101
C         32.97997        54.22694        -0.81005
C         31.85060        54.91151        -1.26138
C         33.03593        57.08068        -1.22490
C         31.83229        56.33946        -1.42069
C         33.00775        58.47798        -1.23439
C         31.82364        59.18546        -1.57241
C         33.05034        61.34487        -1.63792
C         31.85523        60.61516        -1.78134
C         35.25352        48.55618         0.33346
C         35.21372        49.94956         0.32088
C         34.08163        50.69565        -0.10301
C         35.23792        52.88016         0.43478
C         34.06157        52.10447        -0.13595
C         35.34051        54.29879        -0.09643
C         34.22870        54.94384        -0.59348
C         35.48345        57.12887        -0.53470
C         34.34929        56.34437        -1.14707
C         35.47089        58.53867        -0.56217
C         34.18212        59.22825        -0.75437
C         35.53093        61.40668        -0.96678
C         34.21498        60.78498        -0.97586
C         37.60268        44.26999         0.12560
C         37.65423        45.62453         0.56721
C         36.53508        46.41876         0.30122
C         37.67221        48.51494         0.82146
C         36.47513        47.83553         0.54970
C         37.70538        49.95474         1.01955
C         36.41023        50.70751         0.75205
C         37.77165        52.84286         0.68497
C         36.54443        52.10583         0.19786
C         37.74403        54.25349         0.50711
C         36.61093        54.97063         0.05800
C         37.82183        57.14967         0.14661
C         36.66413        56.41697        -0.14150
C         37.82270        58.61874         0.18100
C         36.60996        59.31628        -0.25207
C         37.92108        61.43612        -0.36667
C         36.66043        60.73274        -0.49137
C         40.22850        40.02205         0.08089
C         40.14589        41.36954         0.26245
C         38.93659        42.09120        -0.12404
C         40.28531        44.31856         1.21627
C         38.52115        43.25591         0.50495
C         40.19142        45.67483         1.12598
C         38.83989        46.35465         1.27599
C         40.19862        48.53949         1.02632
C         38.95608        47.75697         0.63767
C         40.19772        49.97624         1.05532
C         38.98991        50.69327         0.97873
C         40.22741        52.81644         1.18110
C         38.96880        52.12727         0.96423
C         40.18604        54.29875         1.25067
C         39.03728        54.95779         0.56379
C         40.32393        57.18782         0.63482
C         39.07546        56.44007         0.38073
C         40.38003        58.51331         0.15481
C         39.16533        59.37149         0.15753
C         40.31364        61.68831         0.11837
C         39.15271        60.84617        -0.14222
C         42.64231        35.81519        -0.57584
C         42.65505        37.21455        -0.40619
C         41.49339        37.85847         0.03775
C         42.70273        40.05086         0.17269
C         41.45937        39.26883         0.52010
C         42.67778        41.43035         0.34486
C         41.38586        42.07829         0.85647
C         42.67975        44.30079         0.74204
C         41.38108        43.57322         0.52420
C         42.65503        45.68723         0.98912
C         41.43212        46.41326         1.01395
C         42.68029        48.58654         1.03502
C         41.40494        47.84119         1.07632
C         42.67139        50.03276         1.29142
C         41.45942        50.69609         1.23668
C         42.72650        52.87019         1.35339
C         41.42420        52.13961         1.32410
C         42.72688        54.35781         1.42643
C         41.42839        55.09827         1.45007
C         42.74034        57.19126         1.00622
C         41.50375        56.50888         0.98883
C         42.81012        58.49140         0.47718
C         41.65286        59.02977        -0.09712
C         42.89116        61.69403         0.42159
C         41.62947        61.26673        -0.06129
C         45.15333        33.02826        -1.02906
C         43.93483        33.64610        -0.87262
C         45.10242        35.89936        -1.28422
C         43.78795        35.08344        -1.08847
C         45.10310        37.33802        -0.95252
C         43.89445        37.98087        -0.58705
C         45.07856        40.12726        -0.44878
C         43.88719        39.37482        -0.27537
C         45.08892        41.55053        -0.24308
C         43.86222        42.21296         0.14895
C         45.08809        44.39267         0.28335
C         43.87000        43.61541         0.41455
C         45.13595        45.69968         0.67464
C         43.95896        46.34856         1.36918
C         45.22211        48.60123         1.38076
C         43.96957        47.84646         1.10155
C         45.23377        49.97319         1.49836
C         43.93386        50.68154         1.83005
C         45.19701        52.84866         1.75390
C         44.00909        52.17295         1.62841
C         45.22704        54.32118         2.16875
C         43.94200        55.09763         1.89331
C         45.26975        57.18602         1.27579
C         43.96950        56.56699         1.57045
C         45.25844        58.54431         0.70853
C         43.98461        59.36029         0.88673
C         45.29912        61.44898         0.53040
C         44.04403        60.83909         0.45933
C         46.35650        33.75851        -1.19247
C         47.56125        35.90580        -1.06076
C         46.37056        35.16101        -1.18639
C         47.60272        37.31984        -1.08393
C         46.33246        38.04877        -1.04809
C         47.35070        40.30353        -1.26300
C         46.26137        39.47536        -0.91079
C         47.49951        41.63779        -0.81306
C         46.29005        42.27596        -0.38476
C         47.57752        44.39823        -0.03647
C         46.25677        43.77713        -0.43640
C         47.60561        45.92389        -0.05732
C         46.42895        46.42572         0.75685
C         47.74020        48.59482         1.14010
C         46.47524        47.85080         1.23949
C         47.72302        50.01714         1.36604
C         46.47849        50.71506         1.52775
C         47.70594        52.85350         1.70222
C         46.48531        52.13885         1.70791
C         47.75514        54.33271         2.09163
C         46.48074        55.06950         1.76308
C         47.74914        57.15420         1.27923
C         46.48518        56.44506         1.42168
C         47.79047        58.55408         1.04260
C         46.57185        59.27688         0.62442
C         47.73400        61.43461         0.81957
C         46.53666        60.75565         0.67198
C         48.89160        37.92053        -0.90143
C         50.18454        40.14104        -0.80037
C         49.18673        39.25592        -1.23092
C         50.04853        41.57326        -0.84265
C         48.78830        42.26421        -0.77705
C         50.03323        44.54361        -0.66116
C         48.83779        43.66863        -0.30700
C         50.09829        45.83623         0.13870
C         48.91027        46.51663         0.42022
C         50.21005        48.50264         1.14530
C         48.91358        47.86057         0.91220
C         50.21541        50.01914         1.37152
C         48.93660        50.74414         1.37295
C         50.20679        52.85123         1.44881
C         48.95152        52.16434         1.50546
C         50.30909        54.28690         1.91928
C         49.02003        55.04387         1.67721
C         50.22504        57.16915         1.42077
C         49.01138        56.44061         1.45787
C         50.24034        58.65682         1.61748
C         48.97263        59.30934         1.15649
C         50.18743        61.43750         0.94378
C         48.97352        60.73282         0.97504
C         51.25049        42.33888        -0.69970
C         52.52636        44.41775        -0.44930
C         51.31296        43.73852        -0.59881
C         52.57507        45.81358        -0.13942
C         51.36116        46.50677         0.22071
C         52.62184        48.60323         0.53337
C         51.42431        47.86279         0.62302
C         52.62833        50.03647         0.71435
C         51.44185        50.74341         1.03230
C         52.62419        52.88569         0.83872
C         51.41234        52.16464         1.09922
C         52.60948        54.33070         0.90107
C         51.51759        55.00756         1.36836
C         52.70225        57.23065         1.03907
C         51.54248        56.48890         1.65131
C         52.67170        58.61466         0.84690
C         51.47045        59.33925         1.06857
C         52.61146        61.44606         0.50354
C         51.43657        60.75067         0.86312
C         53.78470        46.52141        -0.12530
C         55.01968        48.64785         0.00009
C         53.82600        47.91607         0.14271
C         55.03793        50.05661         0.12749
C         53.82893        50.76976         0.46327
C         55.05140        52.91330         0.23015
C         53.82687        52.19194         0.52219
C         55.08358        54.31664         0.24070
C         53.77607        55.07109         0.27669
C         55.20119        57.20660         0.52489
C         53.93560        56.47000         0.86551
C         55.06520        58.64130         0.24189
C         53.87659        59.31636         0.40420
C         54.93771        61.45608        -0.27135
C         53.82719        60.77098         0.20995
C         56.22286        50.77301        -0.12972
C         57.41124        52.88454        -0.50044
C         56.24836        52.18511        -0.11242
C         57.43449        54.29283        -0.53502
C         56.26940        55.02221        -0.11034
C         57.47753        57.13157        -0.49295
C         56.33669        56.45479        -0.06994
C         57.55995        58.61241        -0.40792
C         56.28799        59.37035        -0.16115
C         57.32178        61.40629        -1.24380
C         56.05658        60.67397        -0.89317
C         58.54111        55.00399        -1.07125
C         59.56599        57.10757        -1.84748
C         58.55334        56.40336        -1.11875
C         59.60351        58.49572        -1.94037
C         58.77902        59.33464        -0.98828
C         59.54744        61.34946        -2.25997
C         58.47937        60.72934        -1.52190
C         60.53952        59.17253        -2.74820
C         60.54063        60.57959        -2.84306
O         54.93232        56.71393         1.89924
O         38.44478        59.14715         1.42230
O         57.27729        59.24204         0.90576
O         40.52914        54.84808         2.57686
O         48.27432        39.81999        -2.16864
O         41.75497        60.14210        -0.90766
O         39.38085        55.48697        -0.76354
O         43.70185        56.06085         2.95739
O         45.92867        58.70273        -0.57562
O         44.26323        35.54966        -2.40943
O         36.82315        50.47860         2.10260
O         53.46297        55.26303        -1.08736
O         39.20852        43.59504         1.70278
O         50.36364        49.06974         2.48737
O         48.29579        43.81018         1.07354
O         43.45022        48.21683        -0.22024
O         33.86933        60.13332         0.31112
O         46.69525        46.69065         2.17874
O         42.91375        53.71950         0.12515
O         49.79040        45.05516        -1.96493
O         47.86929        54.28348         3.57945
H         46.94718        54.11230         3.91910
O         38.51305        46.51219         2.66294
H         38.53302        45.62496         3.07963
O         59.69134        59.56398         0.12762
H         59.12684        59.78169         0.90574
O         35.05872        52.96755         1.86849
H         34.19956        53.40362         2.04430
O         44.11416        46.15150         2.80104
H         45.07588        46.26911         3.00554
O         34.75226        56.18545        -2.56397
H         35.60539        55.70074        -2.57036
O         47.46920        46.35967        -1.42321
H         48.25619        45.94885        -1.90421
O         55.53279        60.21256        -2.20321
H         55.20745        60.99980        -2.68914
O         50.31331        58.88520         3.11491
H         49.44190        58.62426         3.48571
O         45.25217        54.18546         3.65059
H         44.85173        55.02189         3.99741
O         46.08505        44.09245        -1.85262
H         45.19382        43.79116        -2.12690
O         41.40152        39.19678         2.01191
H         42.18897        38.69185         2.30846
O         41.10553        43.67049        -0.91446
H         41.11183        44.62008        -1.16261
O         50.51845        54.19881         3.36803
H         49.63124        54.06424         3.78594
O         51.83033        56.61291         3.09153
H         51.49287        57.50032         3.38052
O         43.85395        59.46786         2.34119
H         43.00399        59.91214         2.54528
O         39.10481        47.50418        -0.79924
H         39.22823        48.36568        -1.25070
O         36.71308        51.93064        -1.23656
H         36.86509        52.81356        -1.63539
O         41.37305        41.94850         2.28752
H         41.31274        40.98003         2.48945
O         43.79168        50.52755         3.29315
H         44.54999        50.98362         3.71822
H         29.71618        56.46977        -1.88311
H         28.53919        58.57874        -2.45399
H         30.67983        62.33482        -2.42476
H         28.59205        61.04384        -2.79795
H         32.06022        52.25563        -0.93551
H         30.91960        54.35240        -1.43712
H         33.10712        62.36881        -2.03668
H         34.35640        47.98856         0.04443
H         33.18990        50.14795        -0.44617
H         35.63261        62.43062        -1.35471
H         36.79407        44.01030        -0.57787
H         35.63556        45.93899        -0.11677
H         37.88955        62.52717        -0.50889
H         39.37854        39.45649        -0.33046
H         38.35669        41.70238        -0.97517
H         40.11582        62.68575         0.54048
H         41.76239        35.24859        -0.23600
H         40.58438        37.25506         0.18365
H         43.03378        62.75012         0.70344
H         45.21925        31.93655        -0.91594
H         43.05647        33.07040        -0.54653
H         45.34889        62.54604         0.44383
H         47.31297        33.21656        -1.19469
H         48.51379        35.35774        -0.99921
H         47.74602        62.53446         0.80760
H         49.68729        37.28671        -0.48132
H         51.10045        39.73621        -0.34429
H         50.17148        62.52860         0.80680
H         52.19835        41.77704        -0.65500
H         53.47653        43.86648        -0.53931
H         52.56161        62.53639         0.36303
H         54.71820        46.00529        -0.39501
H         55.94474        48.12473        -0.28406
H         54.89741        62.54902        -0.39766
H         57.13900        50.22068        -0.38812
H         58.29700        52.31826        -0.82423
H         57.22504        62.45338        -1.57836
H         59.38408        54.44031        -1.49755
H         60.29500        56.51407        -2.42143
H         59.49647        62.42926        -2.46637
H         61.25955        58.58972        -3.34168
H         61.30603        61.06833        -3.46283
