         486
 CSIRO Nanostructure Databank - Neutral Graphene Oxide Data Set
C          8.77909        19.06437         1.90380
C          8.84366        20.41560         2.06432
C          7.85063        21.24455         2.73671
C          8.98643        23.50204         2.55639
C          7.89514        22.59032         2.93536
C          8.77286        24.66375         1.86980
C         10.86688        14.66056         0.55546
C         10.98437        16.18093         0.70882
C          9.89247        16.88601         1.08303
C         11.25561        18.90346         1.61380
C          9.89061        18.39883         1.10509
C         11.34567        20.35780         2.08486
C         10.08676        20.98848         1.44727
C         11.36503        23.40757         1.90792
C         10.37785        23.11407         2.83442
C         11.14243        24.58040         0.96223
C          9.91456        25.41410         1.35448
C         11.02534        27.54833         0.63163
C          9.87478        26.76403         1.21832
C         11.05771        29.02351         0.96877
C         13.45548        10.26789         0.00790
C         13.45478        11.73146         0.26105
C         12.22296        12.54264         0.50699
C         13.33987        14.65665        -0.13985
C         12.17318        13.89623         0.39565
C         13.50419        16.13265         0.09944
C         12.28673        16.88991         0.48072
C         13.83924        18.90590         1.29532
C         12.48503        18.16371         1.25690
C         13.75738        20.41383         1.06662
C         12.65734        21.10871         1.77021
C         13.73399        23.31043         0.99287
C         12.62859        22.64586         1.74197
C         13.68484        24.69174         0.89234
C         12.41207        25.40923         1.12528
C         13.65357        27.67676         0.89005
C         12.34860        26.89645         1.05257
C         13.42712        29.04656         0.20197
C         12.20302        29.79721         0.73026
C         13.44906        32.02778         0.68211
C         12.18019        31.20306         0.75963
C         13.40480        33.47438         0.21217
C         15.72478         7.47845        -0.64866
C         14.55818         8.15861        -0.49623
C         15.62932        10.27614        -1.35451
C         14.50780         9.60768        -0.56282
C         15.68471        11.76809        -1.06141
C         14.67852        12.44111        -0.20467
C         15.85161        14.62374        -0.61652
C         14.56968        13.90592        -0.46277
C         16.04883        15.93928         0.02456
C         14.85298        16.66805         0.66677
C         15.97736        18.90789         0.02812
C         14.90595        18.20219         0.49362
C         15.96851        20.38493        -0.08920
C         14.83086        21.11847         0.50340
C         15.87882        23.29317        -0.24706
C         14.84151        22.56054         0.46250
C         15.93943        24.67083        -0.19716
C         14.96225        25.45306         0.66331
C         15.98624        27.65596        -0.15701
C         14.67246        26.85069         0.04681
C         15.82976        29.12796        -0.52513
C         14.73667        29.86789         0.23512
C         15.75275        32.04485        -0.46666
C         14.44680        31.29468        -0.25968
C         15.88963        33.37885         0.23785
C         14.58210        34.13736         0.04180
C         15.85073        36.21019        -0.37631
C         14.67865        35.53861        -0.35443
C         18.16673         7.39156        -0.83223
C         16.99186         8.13828        -0.90851
C         18.21834        10.13306        -1.55731
C         16.99538         9.55519        -1.22702
C         18.41751        11.50753        -1.99378
C         16.51535        12.59927        -1.74959
C         18.09657        14.60216        -1.70585
C         16.79368        13.97641        -1.36765
C         18.07437        16.12861        -1.57698
C         17.25459        16.68912        -0.41567
C         18.34540        18.91748        -0.95123
C         17.24170        18.18765        -0.28869
C         18.11655        20.33985        -1.36272
C         16.96314        21.06492        -0.76771
C         18.16205        23.30554        -1.37494
C         16.83643        22.54107        -1.15753
C         18.19629        24.66477        -1.34660
C         16.97199        25.41847        -0.97887
C         18.15821        27.71298        -1.45892
C         16.95043        26.92069        -1.07846
C         18.14738        29.08525        -1.38502
C         16.93401        29.79978        -0.97266
C         18.26930        31.98090        -0.76279
C         16.96269        31.29152        -0.88800
C         18.27400        33.42852        -0.52580
C         17.14418        34.10730        -0.18778
C         18.38657        36.28688        -0.42862
C         17.15269        35.58925         0.09092
C         20.67390         7.31409        -0.84710
C         19.45750         7.96979        -1.03277
C         20.77418        10.18798        -1.23790
C         19.46634         9.36690        -1.47085
C         20.69132        11.67051        -1.12149
C         19.48261        12.30967        -1.63147
C         20.63379        14.57724        -1.41091
C         19.41487        13.80576        -1.76667
C         20.65099        15.95274        -1.52337
C         19.44775        16.76227        -1.59240
C         20.74747        18.87898        -1.62053
C         19.47714        18.13144        -1.53141
C         20.65277        20.36625        -1.74704
C         19.32224        21.08255        -1.87531
C         20.63680        23.35515        -1.88663
C         19.30737        22.61482        -2.11715
C         20.66392        24.72609        -1.79625
C         19.33188        25.42999        -2.04089
C         20.67186        27.67454        -1.54294
C         19.38148        26.95483        -1.81678
C         20.65991        29.12856        -1.24290
C         19.41041        29.89651        -1.64604
C         20.61828        32.00890        -1.54699
C         19.40632        31.28339        -1.02787
C         20.67813        33.53027        -1.41701
C         19.62015        34.11944        -0.46819
C         20.81109        36.30313        -0.90662
C         19.55765        35.62420        -0.64074
C         23.16161         7.35149        -0.56985
C         21.91169         8.03491        -0.71207
C         22.99092        10.18549        -0.05293
C         21.87950         9.45300        -0.65594
C         22.94504        11.71946         0.03443
C         21.78599        12.38136        -0.70603
C         23.09511        14.58828        -0.60854
C         21.78167        13.86744        -0.77134
C         23.22446        15.97036        -1.17345
C         21.95635        16.67517        -1.49552
C         22.88197        18.60542        -0.27266
C         21.94366        18.11300        -1.17424
C         22.53308        20.85158        -0.17255
C         21.72894        21.21913        -1.19829
C         23.16823        23.31590        -1.37886
C         21.88710        22.58752        -1.72907
C         23.09255        24.78064        -1.29835
C         21.90742        25.44744        -1.49739
C         23.12719        27.68772        -1.05965
C         21.84291        26.88776        -1.02023
C         23.10737        29.06408        -0.88469
C         21.84530        29.78717        -1.07345
C         23.19154        31.97940        -1.07922
C         21.91715        31.24775        -1.34795
C         23.14324        33.44730        -0.86728
C         21.99869        34.15880        -1.04330
C         23.29670        36.29380        -1.07530
C         22.01248        35.62158        -0.99514
C         25.63846         7.38046        -0.41847
C         24.38476         8.02679        -0.38531
C         25.57254        10.24892         0.03742
C         24.32564         9.45468         0.00604
C         25.55450        11.60670         0.01350
C         24.30073        12.33045        -0.33056
C         25.58261        14.55042        -0.04541
C         24.37136        13.79857        -0.52729
C         25.55522        16.03152        -0.12434
C         24.48909        16.81120        -0.88873
C         25.39262        18.90960         0.19089
C         24.22276        18.13213        -0.14582
C         25.45547        20.24747         0.62283
C         23.69632        21.58807         0.23469
C         25.35844        23.40679         0.03241
C         24.13693        22.69256        -0.42597
C         25.51783        24.79582        -0.43222
C         24.40466        25.44631        -1.08847
C         25.56599        27.65747        -0.45232
C         24.41719        27.00941        -1.06310
C         25.48066        29.04026        -0.18369
C         24.32509        29.77333        -0.54750
C         25.55418        31.88970        -0.37258
C         24.37289        31.21913        -0.58648
C         25.64608        33.37425        -0.43147
C         24.40129        34.16611        -0.58216
C         25.79743        36.21217        -0.91416
C         24.48137        35.60568        -0.92860
C         28.10485         7.41899        -0.25685
C         26.88428         8.06185        -0.22683
C         28.09418        10.21822         0.41040
C         26.88561         9.57218        -0.25131
C         28.01338        11.65149         0.82015
C         26.77251        12.38634         0.41211
C         28.06862        14.57036         0.67474
C         26.93278        13.83053        -0.03093
C         27.94467        16.08585         0.85891
C         26.84703        16.76263         0.02960
C         27.92279        18.97784         0.74083
C         26.74926        18.25622         0.07550
C         27.95216        20.43720         0.30089
C         26.62112        21.12717         0.34255
C         27.90574        23.40798         0.71137
C         26.57278        22.63921         0.52296
C         27.94702        24.77853         0.04925
C         26.75366        25.47854        -0.29347
C         28.00817        27.62670        -0.11782
C         26.78349        26.92702        -0.31169
C         27.90470        28.87589         0.76468
C         26.65274        29.70851         0.42193
C         28.03639        31.88023         0.22247
C         26.70050        31.20512         0.25287
C         28.15814        33.26450        -0.32214
C         26.94519        33.98002        -0.93663
C         28.27150        36.12748        -0.76703
C         26.96862        35.49355        -0.80140
C         30.63989         7.64094        -0.65911
C         29.40519         8.11482         0.08191
C         30.50822        10.45334        -0.01302
C         29.28739         9.62368         0.13447
C         30.54796        11.69590         0.77354
C         29.29358        12.37956         1.29679
C         30.45480        14.71861         1.20536
C         29.24042        13.92794         1.04544
C         30.47230        16.05875         0.57844
C         29.22662        16.84801         0.60487
C         30.45462        18.97532         0.23537
C         29.20884        18.20426         0.47826
C         30.45254        20.49886         0.31895
C         29.18126        21.24724         0.47219
C         30.42870        23.39305         0.53798
C         29.16305        22.60438         0.43871
C         30.44176        24.80407         0.06734
C         29.18046        25.46260        -0.07539
C         30.43712        27.53486        -0.62249
C         29.19852        26.88432        -0.31301
C         30.48872        29.15723         1.37774
C         29.13154        29.76846         1.15684
C         30.47617        31.95968         1.23988
C         29.11792        31.26115         1.06617
C         30.41580        33.45967         0.93003
C         29.27761        34.10063         0.20809
C         30.73177        36.05989        -0.33890
C         29.40458        35.47080        -0.35256
C         31.76147         8.37508        -0.76526
C         33.07745        10.52025        -0.08195
C         31.81312         9.82299        -0.41520
C         33.06094        11.70680         0.63926
C         31.77454        12.08580         1.21088
C         32.97207        14.74459         1.17919
C         31.72092        14.19975         1.55342
C         33.00135        16.24019         1.25738
C         31.77959        16.84781         0.58458
C         32.96252        19.06176         0.69813
C         31.73697        18.28629         0.44609
C         32.92879        20.49603         0.21498
C         31.72448        21.15819         0.89567
C         33.04024        23.46484         0.68330
C         31.71442        22.68769         0.81898
C         32.87775        24.69254        -0.20487
C         31.66174        25.48332        -0.15427
C         32.90514        27.72474        -0.21035
C         31.68285        26.91355        -0.42833
C         32.94001        28.94499         0.77036
C         31.63696        29.73986         0.90432
C         32.90529        31.96009         0.78557
C         31.60522        31.22314         0.48311
C         32.93772        33.30274         0.89318
C         31.73826        34.21303         1.08742
C         31.79765        35.47187         0.25090
C         34.20296        12.59514         0.79490
C         35.44444        14.75331         0.96017
C         34.18496        13.98989         1.03124
C         35.53081        16.13105         0.87990
C         34.24583        16.89331         0.65748
C         35.60492        19.07374         1.21061
C         34.25051        18.36086         1.05524
C         35.56453        20.46516         0.56191
C         34.26338        21.18693         0.36500
C         35.44693        23.27891        -0.04224
C         34.25971        22.63764         0.33454
C         35.26538        24.47037        -0.77305
C         33.99690        25.08497        -0.91580
C         35.44000        27.74954        -0.16691
C         34.11788        27.27571        -0.66640
C         35.39054        29.04447         0.32125
C         34.10570        29.82707         0.23998
C         34.19311        31.17129         0.95735
C         36.75919        16.89881         0.72408
C         38.01433        19.08505         0.57144
C         36.80361        18.28550         0.70864
C         38.04664        20.46500         0.61973
C         36.79445        21.29349         0.85155
C         38.07881        23.40612         0.08254
C         36.76629        22.59843         0.04433
C         38.02004        24.87436         0.25222
C         37.05374        25.69175        -0.33219
C         36.66562        27.00431         0.04294
C         39.26051        21.26792         0.66087
C         39.25390        22.62747         0.56971
O         27.21017        17.55621        -1.12261
O         19.58603        30.19275        -3.06121
O         22.19092        14.51109         0.51443
O         25.03218        33.94940         0.76442
O         24.48633        12.91117        -1.67784
O         35.88571        19.23471         2.56970
O         26.97516        12.02869         1.81892
O         23.48474         9.62029         1.21350
O         14.57866        12.05899         1.19853
O         31.30475        16.14199        -0.62536
O         25.20682        15.35520         1.12930
O         17.29553        15.95612         0.82021
O         22.96964        22.74766        -2.71016
O         31.80490        13.00513         2.26142
O         20.21069        27.50693        -2.90146
O         28.55371        32.11188        -1.14008
O         13.10493        21.92926         2.92326
O         26.31135        30.59804         1.53030
O         27.25191        20.73610        -0.93687
O         18.37101        20.46823        -2.79915
O         13.62130        14.26008        -1.53689
O         17.35975        12.05439        -2.73078
O         25.60733        23.15094         1.47878
O         18.35890        18.73393         0.51242
O         29.32495        34.08313         1.68407
O         20.38627         9.67763        -2.55421
O         37.56619        22.76057        -1.13805
O         12.32106        26.23980         2.35565
O         22.83068        16.13250        -2.57553
O         30.96656        10.58028        -1.40922
O         14.83862        16.41267         2.05188
O         16.13302        32.04677        -1.87328
O         36.30209        25.11536        -1.39939
O         33.36648        18.81005         2.09695
O         12.80905        16.96591        -0.88797
O         21.00103        19.57226        -2.92498
O         18.71794        14.25525        -2.97572
O         24.75619        26.24088        -2.26166
O         35.13515        20.60345        -0.78370
O         22.40070        19.65987         0.52652
O         10.10728        21.61218         0.40003
O         30.43994        19.83799        -0.97185
O         20.43256        33.85463        -2.81893
O         16.40618        26.12861        -2.18762
O         28.69820        30.61680         2.29514
O         24.39304        20.90527         1.24756
O         11.87882        18.01189         2.58444
O         22.83021        31.55457        -2.46732
O         30.96015        23.25404         1.94206
O         34.03616        26.27255        -1.66836
O         27.60375        28.23731         2.05384
H         27.31765        28.96961         2.65083
O         31.35871        31.33816        -0.93800
H         32.21698        31.14294        -1.38826
O         16.70695        27.75949         1.11418
H         16.41232        27.03584         1.72328
O         25.06157        17.13594        -2.16412
H         24.33541        17.08015        -2.83357
O         30.30438        28.74597        -1.21805
H         31.17294        29.18013        -1.36384
O         17.37570        16.60088        -2.75788
H         17.77056        16.14414        -3.53373
O         32.88512        16.50912         2.67765
H         33.77479        16.66800         3.05736
O         29.67185         7.73194         1.48142
H         28.90406         8.01618         2.02217
O         14.31554        18.83582         2.65473
H         14.59923        17.86727         2.77820
O         22.73154        12.05298         1.42493
H         23.07711        11.30138         1.96236
O         10.88461        27.44829        -0.80753
H         11.72347        27.78544        -1.22207
O         27.33376        13.72416        -1.42428
H         27.43573        14.62305        -1.80361
O          9.74637        18.84988        -0.26836
H         10.33628        18.31271        -0.83893
O         10.60503        22.50537         4.00041
H         11.54975        22.20876         4.03647
O         15.29073        30.03457         1.55708
H         15.74192        29.18577         1.80726
O         31.84253        34.64077         2.47103
H         31.68521        33.83899         3.01915
O         28.00494        23.69743         2.13681
H         27.08713        23.86354         2.45708
O         27.70960        19.02432         2.16849
H         27.68601        18.08801         2.50305
O         15.55886        25.58382         2.00558
H         15.63187        24.68223         2.38721
O         33.32005        28.44248         2.06803
H         32.53549        27.98538         2.44527
O         15.25270        10.11883        -2.75068
H         15.90632        10.62641        -3.28376
O         34.07621        16.93159        -0.78874
H         33.98397        16.01182        -1.11673
O         34.46694        30.96906         2.34597
H         33.95792        30.18068         2.64809
O         27.56384        16.29681         2.25832
H         26.68423        15.86029         2.37655
O         13.76492        31.28032        -1.53604
H         14.45965        31.44945        -2.22328
O         33.35719        24.01895         1.99549
H         32.49285        24.14192         2.45971
O         29.32486        12.25198         2.73186
H         28.41745        12.44680         3.05921
O         20.27999        31.97177        -3.02999
H         21.13070        31.81785        -3.52207
O         30.84898        31.87880         2.63240
H         30.03864        32.03116         3.16622
O         16.10355        33.11094         1.64570
H         16.29154        33.97882         2.07310
O         16.23026        22.52643        -2.47896
H         16.91695        22.20296        -3.11012
O         19.05217        25.29518        -3.45272
H         18.13536        25.61214        -3.60607
O         33.83082        30.13926        -1.16502
H         34.17298        29.40476        -1.71946
O         14.18197        27.90097         2.20035
H         13.78841        27.20385         2.78332
O         13.80775        32.07939         2.08186
H         14.37294        31.29227         2.29308
O         14.01657        26.56240        -1.18946
H         14.68252        26.23740        -1.84562
O         11.05091        24.15894        -0.40456
H         10.47057        23.36570        -0.44372
O         13.14805        28.79991        -1.19287
H         13.11082        29.68460        -1.64185
O         32.67387        20.54453        -1.19950
H         33.47711        20.21743        -1.66399
O         11.18068        20.25401         3.50677
H         11.73548        19.48674         3.78772
O         26.97097        33.73310        -2.36511
H         27.52553        32.93287        -2.51940
O         10.08962        14.12077         1.62537
H         10.56906        14.27817         2.46473
O         36.74940        21.65995         2.24244
H         36.49550        20.81013         2.72477
O         31.75384        20.81447         2.28687
H         31.26226        21.51233         2.77813
O         21.52928        26.76144         0.41883
H         22.31076        26.38807         0.87924
O         17.18066        35.72061         1.56526
H         17.05246        36.66967         1.77864
O         27.07558         9.90680        -1.67427
H         27.93995         9.54383        -1.96612
O         30.49041        27.94833         2.01789
H         29.56155        27.72289         2.26824
O         18.98247        22.76177        -3.51931
H         19.66175        22.28894        -4.04492
O         20.13607        33.84755         0.86779
H         19.51805        34.25046         1.51507
H          7.93401        18.46999         2.28509
H          6.94163        20.71470         3.06573
H          6.99136        23.06486         3.35349
H          7.75203        25.02178         1.66671
H         10.27533        14.47748        -0.38544
H          8.95107        16.35182         1.28749
H          8.96176        27.31206         1.50225
H         10.13045        29.52317         1.29559
H         12.64833         9.67061         0.46469
H         11.31229        12.00297         0.81327
H         11.25270        31.70093         1.08919
H         12.44240        33.99364         0.07907
H         15.74085         6.38594        -0.52022
H         13.64221         7.61761        -0.21341
H         15.86614        37.26828        -0.68153
H         13.74885        36.05231        -0.64616
H         18.10075         6.32412        -0.57266
H         18.35554        37.38577        -0.51240
H         20.68053         6.23221        -0.64740
H         20.80779        37.40418        -0.93002
H         23.17610         6.26122        -0.72004
H         23.30777        37.38296        -1.23522
H         25.66319         6.29245        -0.58864
H         25.85283        37.31201        -0.94768
H         28.13208         6.31922        -0.32456
H         28.33987        37.18778        -1.05792
H         30.65096         6.58844        -0.98242
H         30.86074        37.02606        -0.85109
H         32.66135         7.93083        -1.22020
H         34.02186        10.12290        -0.48538
H         33.91239        33.78545         1.07708
H         32.77129        35.98486         0.22178
H         35.18268        12.16102         0.53366
H         36.37677        14.16581         0.97201
H         36.27906        29.51069         0.77185
H         35.04404        31.76550         0.53165
H         37.69731        16.33370         0.59249
H         38.96675        18.54584         0.43233
H         38.61509        25.28576         1.08111
H         37.39651        27.54142         0.67050
H         40.21327        20.75229         0.86003
H         40.19541        23.17877         0.71697
