         490
 CSIRO Nanostructure Databank - Neutral Graphene Oxide Data Set
C         37.44097        50.07134         0.50173
C         36.24170        50.74873         0.66817
C         37.45042        52.81613         0.98188
C         36.24699        52.13044         0.91089
C         39.98137        48.65866         0.13347
C         39.94252        50.04126         0.40170
C         38.68096        50.74767         0.57086
C         39.95115        52.86556         0.88447
C         38.68764        52.14869         0.81477
C         39.98743        54.26391         1.06794
C         42.41866        48.64942         0.08848
C         41.18550        47.98457        -0.02709
C         42.41205        50.04511         0.38045
C         41.17521        50.74549         0.51508
C         42.42799        52.86316         0.84550
C         41.18794        52.16181         0.76153
C         42.42576        54.28577         0.96364
C         41.18617        54.95505         1.08520
C         44.92811        45.93861        -0.71975
C         43.71658        46.60621        -0.57260
C         44.90679        48.57624         0.18918
C         43.68153        47.93346        -0.10105
C         44.88108        49.96123         0.68581
C         43.64369        50.74730         0.58661
C         44.94232        52.84457         0.84063
C         43.68008        52.13748         0.78634
C         44.96685        54.31697         1.16738
C         43.66194        55.02663         0.90685
C         44.88205        57.11457         0.60649
C         43.68053        56.40647         0.73653
C         47.39631        44.37682        -0.25866
C         47.43161        45.82181        -0.67963
C         46.14422        46.56272        -0.41446
C         47.41118        48.62553         0.15413
C         46.14760        47.90967         0.01422
C         47.43472        50.01198         0.37182
C         46.20086        50.72094         0.74298
C         47.40882        52.89577         0.52772
C         46.16102        52.18655         0.69436
C         47.40042        54.32509         0.46162
C         46.18507        55.04295         0.63991
C         47.33204        57.20593         0.20152
C         46.12525        56.45395         0.50898
C         47.37957        58.58606         0.20567
C         49.83297        44.34856        -0.25117
C         48.56077        43.68792        -0.14213
C         49.88307        45.76321        -0.13624
C         48.67136        46.50949        -0.16650
C         49.87435        48.63198         0.20380
C         48.65712        47.91718         0.05139
C         49.88263        50.04105         0.23928
C         48.64785        50.75155         0.31508
C         49.87611        52.90016         0.26239
C         48.63405        52.18835         0.37338
C         49.85836        54.33606         0.14058
C         48.62601        55.00968         0.16781
C         49.86860        57.23755        -0.23156
C         48.55053        56.45250        -0.12420
C         49.82773        58.67171         0.06340
C         48.61256        59.30070         0.17156
C         52.28454        41.43671        -0.04616
C         51.10833        42.10551        -0.12250
C         52.37846        44.30991        -0.16940
C         51.07672        43.56811        -0.33351
C         52.34974        45.77716         0.03541
C         51.14479        46.44792         0.06680
C         52.39652        48.63766         0.14092
C         51.14230        47.88528         0.51560
C         52.37577        50.04263         0.12651
C         51.13031        50.77194         0.23449
C         52.40741        52.92253         0.37116
C         51.10294        52.17900         0.22861
C         52.35432        54.37736        -0.02594
C         51.11786        55.07221        -0.00655
C         52.34702        57.20895        -0.11570
C         51.13024        56.48646        -0.08645
C         52.37109        58.65657         0.05135
C         51.10249        59.40130         0.42332
C         52.31158        61.47583        -0.16247
C         51.15612        60.80285        -0.15337
C         54.86598        40.01691        -0.27235
C         54.76212        41.41182         0.07241
C         53.56845        42.10022         0.07554
C         54.84276        44.29615         0.15013
C         53.54774        43.57091         0.45253
C         54.82809        45.74137        -0.03815
C         53.61606        46.47723         0.01672
C         54.81474        48.63735        -0.32496
C         53.60808        47.91980        -0.05432
C         54.83406        50.03425        -0.34752
C         53.60688        50.77162        -0.11126
C         54.80343        52.88014        -0.56549
C         53.58923        52.15863        -0.16913
C         54.81821        54.37815        -0.58810
C         53.55245        55.08402        -0.23735
C         54.82337        57.20473        -0.48572
C         53.55439        56.48956        -0.26859
C         54.81053        58.70766        -0.33641
C         53.54343        59.36067         0.03292
C         54.85584        61.53054         0.05757
C         53.55738        60.83321         0.42065
C         54.89652        62.90859        -0.15250
C         57.31251        40.03135         0.01882
C         56.05681        39.35935        -0.27672
C         57.29815        41.37444         0.32604
C         56.00071        42.11976         0.57653
C         57.28228        44.28244        -0.08766
C         56.00986        43.58637         0.15419
C         57.29188        45.76252        -0.13090
C         56.07296        46.43205        -0.18658
C         57.30028        48.65271        -0.23877
C         56.06061        47.85791        -0.69952
C         57.34211        50.03293        -0.90000
C         56.07028        50.78278        -0.55498
C         57.31845        52.91552        -1.00786
C         56.07891        52.14899        -0.58404
C         57.35285        54.37376        -0.54311
C         56.12008        55.08941        -0.46055
C         57.31162        57.22722        -0.13983
C         56.10788        56.48699        -0.32606
C         57.27287        58.63760         0.05019
C         56.08221        59.37812        -0.00762
C         57.33682        61.50620        -0.06136
C         56.07498        60.80211         0.07613
C         57.33142        62.92636        -0.35101
C         56.10345        63.58679        -0.39532
C         59.88201        37.19496        -0.24875
C         58.64893        37.90689        -0.23698
C         59.81808        40.05019        -0.16457
C         58.56889        39.28270        -0.10942
C         59.84576        41.43846         0.30827
C         58.55403        42.11824         0.71716
C         59.78302        44.34954         0.41433
C         58.55860        43.54108         0.15430
C         59.78764        45.77861         0.02287
C         58.55570        46.47358        -0.16610
C         59.81357        48.59623        -0.26485
C         58.59770        47.88375        -0.31747
C         59.83944        50.04432        -0.38268
C         58.61030        50.79814        -0.58809
C         59.84201        52.93425        -0.77285
C         58.59055        52.16478        -0.69275
C         59.84521        54.38259        -0.46937
C         58.56620        55.06822        -0.37556
C         59.76856        57.17336         0.11822
C         58.57079        56.50070        -0.11822
C         59.79280        58.61083         0.44969
C         58.48162        59.38875         0.57335
C         59.77678        61.39988        -0.55704
C         58.52722        60.80694         0.04262
C         59.80469        62.92116        -0.46909
C         58.59956        63.63152        -0.42471
C         59.77574        65.73769        -0.04769
C         58.63026        65.07360        -0.34681
C         62.46546        35.70505        -0.28430
C         62.37924        37.11355         0.01721
C         61.11816        37.81601        -0.13751
C         62.36869        39.98846         0.26962
C         61.16276        39.28432        -0.18656
C         62.32587        41.42396         0.35558
C         61.04288        42.11120         0.37861
C         62.31756        44.28186         0.26314
C         61.06581        43.58266         0.56201
C         62.26584        45.69344        -0.09076
C         61.00727        46.46300        -0.02485
C         62.28942        48.59035         0.04740
C         61.05349        47.88591        -0.12804
C         62.28637        50.03269         0.05398
C         61.05852        50.71364        -0.27381
C         62.33378        52.89475        -0.16393
C         61.13141        52.15386        -0.54258
C         62.31687        54.30581        -0.20960
C         61.05087        55.02725        -0.26208
C         62.29950        57.24644        -0.21675
C         61.08274        56.44586         0.24883
C         62.32662        58.60663        -0.13098
C         61.10274        59.35377         0.28566
C         62.30653        61.43491        -0.67336
C         61.07754        60.87962         0.11446
C         62.30401        62.95342        -0.50649
C         61.06223        63.60012        -0.32724
C         62.39640        65.75981         0.24193
C         61.02403        64.99708         0.13070
C         62.43183        67.22007         0.18842
C         64.85675        35.60198         0.32575
C         63.63664        35.01622        -0.24634
C         64.81247        37.10402         0.60207
C         63.55428        37.82738         0.31245
C         64.77480        39.93507         0.90296
C         63.54039        39.25261         0.47463
C         64.75454        41.47531         0.86921
C         63.50919        42.15899         0.50671
C         64.77577        44.31557         0.37040
C         63.52757        43.59226         0.32490
C         64.79958        45.71828         0.32707
C         63.59369        46.45981        -0.04992
C         64.72817        48.56557         0.51337
C         63.53352        47.90351         0.19465
C         64.70612        50.04425         0.80015
C         63.47215        50.74987         0.28017
C         64.74854        52.90223         0.19405
C         63.52482        52.18500         0.13944
C         64.77389        54.29536        -0.03405
C         63.54809        55.00159        -0.15483
C         64.81782        57.15958        -0.04031
C         63.54481        56.44929        -0.58736
C         64.82173        58.63511        -0.51673
C         63.64335        59.36579         0.18650
C         64.83448        61.43222        -0.95877
C         63.63961        60.92722        -0.10105
C         64.81972        63.00807        -0.99944
C         63.54615        63.65053        -0.44910
C         64.83558        65.76790        -0.25502
C         63.59703        65.03224        -0.18849
C         64.85101        67.17523        -0.15266
C         63.60367        67.87791        -0.02802
C         67.44216        32.92441        -0.37914
C         66.23410        33.58930        -0.25967
C         67.37931        35.66442         0.26867
C         66.18202        34.95485         0.09782
C         67.39756        37.07258         0.83328
C         66.09525        37.85462         0.64989
C         67.32627        39.99814         0.99314
C         66.07469        39.21104         0.78832
C         67.28669        41.50247         0.89733
C         66.01386        42.21555         0.73756
C         67.24056        44.34411         0.66394
C         66.00942        43.59861         0.57564
C         67.23514        45.74656         0.69133
C         65.99678        46.45450         0.57012
C         67.21672        48.59760         0.82358
C         65.96824        47.87526         0.61931
C         67.24381        49.99177         0.66246
C         65.97006        50.68826         0.21754
C         67.29772        52.80845        -0.09859
C         66.03597        52.19195         0.54594
C         67.28280        54.31836         0.00105
C         66.07597        54.97374        -0.14058
C         67.36103        57.18071        -0.39557
C         66.06902        56.41996        -0.44639
C         67.36725        58.65495        -0.24915
C         66.12706        59.38629        -0.36043
C         67.34435        61.51891        -0.42679
C         66.11948        60.76921        -0.47197
C         67.33203        62.90023        -0.43464
C         66.09520        63.65279        -0.48011
C         67.30161        65.73947         0.20954
C         66.07559        65.01583        -0.27484
C         67.33412        67.20970        -0.18911
C         66.11051        67.91930        -0.17798
C         67.38394        69.99857        -0.06667
C         66.16974        69.33297        -0.19469
C         70.00469        31.50392        -0.42699
C         69.94081        32.90863        -0.27018
C         68.66489        33.60704        -0.21019
C         69.85926        35.75235         0.07162
C         68.62665        35.00503         0.06145
C         69.81133        37.19429         0.10916
C         68.60550        37.85644         0.38928
C         69.62589        40.07169        -0.16639
C         68.69140        39.31344         0.79088
C         69.57992        41.60190        -0.28737
C         68.50696        42.24550         0.54641
C         69.71846        44.38489         0.45137
C         68.48535        43.63154         0.56676
C         69.71560        45.74214         0.75547
C         68.47316        46.47264         0.86596
C         69.68869        48.55585         1.53248
C         68.43490        47.86668         1.02615
C         69.63928        50.13889         1.53580
C         68.45189        50.76023         0.79986
C         69.67746        52.93815         0.95797
C         68.49580        52.11061         0.50793
C         69.74960        54.32946         0.36143
C         68.54825        55.03212         0.05196
C         69.80614        57.15658         0.05787
C         68.59384        56.43490        -0.11583
C         69.81267        58.59312         0.02255
C         68.58114        59.31661        -0.18010
C         69.84011        61.49627         0.04437
C         68.65775        60.77774        -0.55462
C         69.84461        62.90005         0.05734
C         68.65559        63.63013        -0.56697
C         69.81886        65.80439         0.07585
C         68.57965        65.03664        -0.08493
C         69.78653        67.11069        -0.70836
C         68.55794        67.89504        -0.28387
C         69.88886        69.88950         0.31253
C         68.60500        69.29291        -0.08747
C         69.93094        71.13485         0.96822
C         72.41513        31.55440        -0.27789
C         71.22032        30.83595        -0.43339
C         72.37936        32.93364        -0.13182
C         71.15328        33.63766        -0.13060
C         72.29067        35.86573        -0.06493
C         71.10803        35.09074        -0.02967
C         72.24446        37.25954        -0.13730
C         71.02647        37.93756        -0.10984
C         72.09745        40.20847        -0.74259
C         70.90830        39.36986        -0.48105
C         72.09204        41.55617        -0.55678
C         70.92135        42.30906        -0.17090
C         72.11419        44.50903        -0.16000
C         70.94075        43.67793         0.08055
C         72.13106        45.82254         0.14550
C         71.03893        46.44774         0.98145
C         72.17616        48.68572         1.19634
C         70.91470        47.97970         0.77038
C         72.17659        50.02874         1.31563
C         70.95562        50.79471         1.13030
C         72.18588        52.87215         0.61400
C         70.97069        52.15067         0.86192
C         72.19985        54.22911         0.45289
C         70.98375        55.00172         0.35360
C         72.22456        57.18031         0.38300
C         71.02518        56.43751         0.23736
C         72.21158        58.56312         0.42471
C         71.01189        59.29938         0.27200
C         72.11667        61.47137         0.87474
C         70.99503        60.76136         0.40160
C         72.12333        62.86230         0.89503
C         71.01261        63.59516         0.44953
C         72.32822        65.75843        -0.11599
C         71.08693        65.08259         0.33407
C         72.33238        67.03445        -0.53479
C         71.11046        67.91815        -0.70270
C         72.26211        69.61552         0.79101
C         71.08049        69.12686         0.21978
C         72.28109        70.84491         1.45391
C         71.11687        71.61296         1.52307
O         58.08235        43.65724        -1.20427
O         67.33937        40.76750         2.23991
O         64.63452        40.70465         2.12834
O         69.78231        39.46865        -1.48162
O         70.39650        65.83401         1.42333
O         63.01537        46.01508        -1.31670
O         64.68367        36.11926         1.68331
O         60.67512        52.52793        -1.90066
O         49.12280        56.82815        -1.42269
O         45.58561        50.15991         1.96043
O         54.65082        53.65935        -1.87640
O         51.95856        43.92308        -1.49920
O         60.66290        58.92508         1.61387
O         54.79969        58.08415        -1.66992
O         63.74385        59.23758         1.57463
O         66.69336        56.79756        -1.70939
O         60.34719        44.12121         1.76675
O         61.70318        65.22198         1.40579
O         60.58154        39.85725        -1.40143
O         69.54963        50.58100         2.88476
O         69.35493        39.30491         2.08892
H         68.89498        39.99541         2.63555
O         63.55047        56.30975        -2.03170
H         63.54282        57.22130        -2.41282
O         52.65983        52.98268         1.83724
H         52.63280        52.06203         2.17621
O         66.23653        52.38007         1.96119
H         65.61707        51.78858         2.44870
O         51.10750        59.51667         1.89145
H         50.29655        60.00178         2.15433
O         64.83447        56.99939         1.38079
H         64.30644        57.75151         1.78941
O         62.18630        61.04342        -2.05525
H         63.08535        60.79382        -2.40428
O         61.07471        61.46655         1.42344
H         62.01258        61.49042         1.73919
O         64.81099        63.42126        -2.41588
H         63.88202        63.58511        -2.68432
O         57.23792        52.94176        -2.47417
H         56.35067        53.32988        -2.68810
O         47.57000        45.80682        -2.15410
H         48.40464        45.33323        -2.36157
O         58.21357        59.54039         2.00293
H         59.08026        59.76688         2.41742
O         53.35669        43.63643         1.89424
H         54.11428        43.14325         2.29583
O         58.54123        42.21637         2.17711
H         59.27816        42.83566         2.42736
O         57.11596        48.93734         1.17953
H         57.12662        48.08639         1.66632
O         53.47472        60.91954         1.86945
H         52.66887        60.41221         2.14507
O         61.31726        56.29739         1.69505
H         61.34411        57.21773         2.06199
O         70.66791        48.24465        -0.63152
H         71.42245        47.89405        -1.14918
O         69.78601        48.14940         2.91462
H         69.71067        49.01207         3.42849
O         67.57254        36.91439         2.28194
H         67.99443        37.73547         2.62523
O         68.95167        63.65120        -2.00855
H         69.05033        62.70425        -2.28209
O         71.44201        46.20375         2.35453
H         70.86860        46.78454         2.92154
O         59.63869        60.97371        -1.93651
H         60.50927        61.08492        -2.39208
O         45.11881        54.36498         2.64939
H         44.41844        53.79143         3.02883
O         71.22021        68.51310        -2.03523
H         71.98135        69.13066        -2.02803
O         51.16247        47.80396         1.99667
H         51.05208        48.71581         2.34127
O         69.52838        66.67887        -2.06086
H         69.87002        67.37775        -2.66331
O         55.82766        42.16882         2.04680
H         56.73766        42.21499         2.44092
O         64.70751        50.19921         2.25377
H         63.89058        49.78913         2.60759
O         67.19210        65.78478         1.68271
H         66.34732        66.23573         1.89827
O         64.75114        60.99115        -2.33830
H         65.04702        61.76218        -2.88786
O         63.81181        61.59661         1.16512
H         63.98274        60.85013         1.81915
O         68.93817        60.77616        -2.01643
H         68.24759        60.22365        -2.44343
O         64.56843        58.60985        -1.94465
H         65.36074        58.17702        -2.34738
O         67.35090        52.55869        -1.54092
H         66.78206        53.22152        -1.98869
O         56.03865        47.66923        -2.13407
H         56.36319        48.49887        -2.56481
O         69.14344        41.88864        -1.66152
H         69.47626        41.14134        -2.21598
O         57.36204        49.91554        -2.35314
H         57.40322        50.83619        -2.71227
O         69.43852        53.18832         2.37795
H         69.42115        52.28081         2.81332
O         65.82833        50.48041        -1.20357
H         66.54703        50.98892        -1.65716
H         37.41062        48.98956         0.31644
H         35.28981        50.20303         0.61183
H         37.42567        53.89634         1.17653
H         35.29911        52.66936         1.04574
H         39.05027        48.08497         0.04047
H         39.05695        54.83513         1.17870
H         41.15546        46.90696        -0.23481
H         41.16029        56.04454         1.21687
H         44.92487        44.91163        -1.10969
H         42.78951        46.08298        -0.84041
H         44.82727        58.20271         0.47431
H         42.74169        56.96980         0.64611
H         46.43492        43.85100        -0.17622
H         46.46993        59.17287         0.38983
H         48.53253        42.60623         0.04969
H         48.57302        60.38365         0.36431
H         52.26008        40.33849         0.00894
H         50.16692        41.53881        -0.12441
H         52.34798        62.49624        -0.57094
H         50.23985        61.25668        -0.55978
H         53.95738        39.47292        -0.56675
H         53.97057        63.49948        -0.13483
H         56.07732        38.29901        -0.56087
H         56.05521        64.66654        -0.58939
H         59.82422        36.09753        -0.26215
H         57.73062        37.30335        -0.24428
H         59.75502        66.82162         0.12846
H         57.69525        65.64242        -0.43757
H         61.57100        35.20158        -0.67672
H         61.51575        67.78728         0.40109
H         63.66559        33.99600        -0.65288
H         63.60013        68.97592        -0.02567
H         67.42839        31.85114        -0.60815
H         65.30534        33.01905        -0.39115
H         67.38178        71.09335         0.02834
H         65.24790        69.92875        -0.22848
H         69.08287        30.91732        -0.53543
H         69.01560        71.73524         1.06234
H         73.37844        31.02613        -0.27245
H         71.24625        29.74393        -0.55127
H         73.32728        33.47393        -0.00786
H         73.27197        35.37646        -0.11447
H         73.18422        37.81660        -0.25419
H         73.03563        39.71223        -1.02995
H         73.04071        42.09697        -0.69162
H         72.97689        44.06738        -0.68086
H         73.02435        46.42394        -0.08795
H         73.09041        48.10269         1.38272
H         73.10845        50.55615         1.57293
H         73.13849        52.32347         0.58745
H         73.16697        54.73459         0.32782
H         73.18362        56.66136         0.51165
H         73.16231        59.09125         0.57832
H         73.01397        60.93444         1.20942
H         73.02194        63.39426         1.23813
H         73.26934        65.18714        -0.10244
H         73.28522        67.47102        -0.87644
H         73.18440        69.02040         0.72747
H         73.21295        71.20922         1.90747
H         71.12840        72.58599         2.03328
