         210
 CSIRO Nanostructure Databank - Neutral Graphene Oxide Data Set
C         30.32342        31.76807        -0.45332
C         30.46241        32.96908        -0.16172
C         30.50868        35.99884         0.69385
C         30.51707        37.14896         1.18803
C         30.87172        40.13234         2.52045
C         30.79990        41.37447         2.60031
C         32.75742        29.07026        -1.09609
C         31.63075        29.58024        -0.99564
C         32.80967        31.66566        -0.36071
C         31.47109        30.82758        -0.15138
C         32.80979        33.09405        -0.21524
C         31.58980        33.83922        -0.07097
C         32.82292        35.97662         0.27521
C         31.59892        35.20634         0.25530
C         32.83213        37.31791         0.75600
C         31.68019        37.95129         1.34353
C         33.14012        39.70904         2.19665
C         31.83593        39.17925         2.05070
C         33.09939        41.90654         2.38911
C         31.75643        42.40943         2.34069
C         32.79902        44.23837         1.28958
C         31.75552        43.69250         1.74775
C         35.54185        27.57153        -1.54440
C         35.28860        28.92546        -1.14315
C         34.09088        29.57831        -0.97053
C         35.28021        31.68326        -0.44415
C         34.02596        30.98863        -0.57773
C         35.25255        33.11124        -0.30641
C         34.04875        33.83212        -0.22634
C         35.25940        36.00791        -0.12812
C         34.05926        35.29124        -0.07929
C         35.32340        37.45981         0.08050
C         34.04246        38.14594         0.58010
C         35.41916        40.15101         1.23282
C         34.23025        39.37512         1.36012
C         35.46993        41.61847         1.56697
C         34.20676        42.43262         1.69988
C         35.27276        44.40895         0.61874
C         34.11451        43.74019         1.14139
C         35.32816        45.74114         0.13601
C         37.96801        27.50755        -1.59721
C         36.58118        26.90522        -1.60387
C         37.80380        28.89289        -0.91871
C         36.57202        29.58786        -0.88131
C         37.76456        31.63453        -0.15710
C         36.50861        30.97076        -0.52233
C         37.77972        33.15322        -0.07099
C         36.52394        33.83650        -0.44635
C         37.81085        36.03504        -0.08366
C         36.54070        35.35139        -0.38833
C         37.82126        37.42071         0.18141
C         36.59601        38.14237         0.35226
C         37.85084        40.24507         0.56307
C         36.59792        39.51780         0.70419
C         37.87169        41.64752         0.58226
C         36.68369        42.38571         1.06284
C         37.73081        44.47064         0.15780
C         36.55288        43.79201         0.60900
C         37.68573        45.85339        -0.22366
C         36.36509        46.35878        -0.19869
C         40.18063        24.53315        -0.55532
C         39.24700        25.34578        -0.93437
C         40.15325        27.33047        -0.10092
C         39.02045        26.68246        -0.92810
C         40.24834        28.81276        -0.34607
C         39.03528        29.53454        -0.51848
C         40.26272        31.63545        -0.12878
C         39.04921        30.93839        -0.30754
C         40.30514        33.12593        -0.41569
C         39.03556        33.88834        -0.18956
C         40.29209        36.00141        -0.05625
C         39.03835        35.29431        -0.15342
C         40.30227        37.40986         0.07387
C         39.07306        38.12319         0.21509
C         40.30079        40.25338         0.15688
C         39.07355        39.53891         0.30723
C         40.28967        41.67800         0.09351
C         39.05492        42.37452         0.26219
C         40.20462        44.51363        -0.19325
C         39.00875        43.79923         0.09780
C         40.16177        45.93363        -0.43171
C         38.87676        46.56978        -0.49150
C         40.02565        48.65930        -0.88411
C         38.99900        47.94910        -0.76062
C         42.73765        24.56338        -0.14432
C         41.45659        25.14767        -0.34307
C         42.68991        27.31452         0.01609
C         41.47957        26.58263        -0.19245
C         42.70847        28.75476         0.07266
C         41.45857        29.48853        -0.08264
C         42.70936        31.61085         0.37512
C         41.46239        30.91145        -0.01494
C         42.72703        33.13364         0.42607
C         41.51160        33.87152         0.06900
C         42.77942        35.98073         0.15953
C         41.52645        35.26275         0.04082
C         42.78675        37.39834         0.10225
C         41.54767        38.12375         0.08651
C         42.77251        40.26645        -0.06396
C         41.53889        39.54194         0.06336
C         42.75499        41.69181        -0.20225
C         41.50480        42.40071        -0.12375
C         42.68340        44.55251        -0.42414
C         41.46517        43.81973        -0.24750
C         42.63498        45.98362        -0.54126
C         41.37628        46.68707        -0.59507
C         42.61170        48.74250        -0.86457
C         41.33567        48.13081        -0.79765
C         43.79288        25.21458         0.03454
C         45.14639        27.33053         0.34750
C         43.95325        26.61632         0.15453
C         45.16012        28.74387         0.32696
C         43.94404        29.46045         0.19483
C         45.19667        31.63640         0.40204
C         43.99511        30.91016         0.28173
C         45.21825        33.09216         0.37948
C         44.01832        33.82895         0.32708
C         45.24701        35.95859         0.17756
C         44.00663        35.25139         0.21717
C         45.24138        37.38374         0.13014
C         44.03134        38.11261         0.08466
C         45.21164        40.29304        -0.21960
C         44.00996        39.55991        -0.04963
C         45.20817        41.68887        -0.43203
C         43.97235        42.40764        -0.40039
C         45.15038        44.58079        -0.61091
C         43.93977        43.85644        -0.49153
C         45.11629        46.00603        -0.63437
C         43.87861        46.69155        -0.63463
C         43.67218        48.08062        -0.76007
C         47.43088        27.34503         1.27259
C         46.43046        26.83189         0.75665
C         47.44535        28.86237         1.50120
C         46.50827        29.43859         0.38860
C         47.66215        31.63130         0.59544
C         46.46358        30.94515         0.49413
C         47.72139        33.06590         0.42406
C         46.47207        33.80089         0.29365
C         47.72376        35.90721        -0.15990
C         46.46549        35.20743         0.16333
C         47.78766        37.38166        -0.10290
C         46.52724        38.10739         0.14952
C         47.72196        40.22246        -0.71341
C         46.50911        39.59568        -0.06211
C         47.68908        41.72626        -0.51431
C         46.48955        42.39107        -0.53695
C         47.71101        44.63542        -0.42182
C         46.45763        43.85909        -0.90195
C         47.43587        45.96998        -0.52001
C         46.38626        46.65912        -0.78512
C         49.96309        29.13490         1.94518
C         48.78910        29.49972         1.37870
C         50.11562        31.69062         1.29531
C         48.97776        30.86932         0.66822
C         50.16488        33.06527         0.93533
C         48.96684        33.72015         0.41331
C         50.30342        35.89459        -0.00168
C         49.02346        35.11434        -0.06579
C         50.25950        37.37795        -0.04450
C         48.99852        38.08147        -0.16295
C         50.21642        40.22803        -0.38039
C         49.02197        39.53168        -0.32539
C         50.21320        41.66621        -0.90813
C         48.99197        42.43082        -0.37660
C         50.26746        44.51482        -0.72492
C         48.98865        43.94898        -0.25575
C         51.15440        29.60792         2.12841
C         52.26946        31.92903         2.23962
C         51.20875        31.03597         1.98393
C         52.31129        33.14925         1.91854
C         51.35720        33.83920         1.15796
C         52.56136        36.13345         0.99479
C         51.54495        35.16383         0.56494
C         52.52598        37.30187         0.56588
C         51.43047        38.13136         0.16280
C         52.58432        40.35901        -0.10260
C         51.45779        39.53576        -0.05548
C         52.58281        41.61962        -0.31958
C         51.57903        42.46924        -0.69312
C         51.33486        43.85099        -0.64243
O         42.56137        32.33138         1.65984
O         48.36233        35.32661        -1.35782
O         33.32235        40.73491         3.13756
O         34.45972        38.24065        -0.81417
O         49.13472        43.08050         0.92167
O         36.48537        42.09470         2.50458
O         51.31014        35.25128        -0.85715
O         46.69214        39.07190         1.28042
O         36.61232        34.61093        -1.67647
O         37.66604        32.35050         1.14707
O         46.57233        43.84724        -2.36271
H         46.48423        44.77393        -2.67605
O         46.88286        29.13596         2.77118
H         47.49659        28.82707         3.46942
O         31.42466        30.46453         1.19996
H         30.61848        29.93543         1.36815
O         47.17980        29.11265        -0.85606
H         46.85949        29.71415        -1.55914
O         47.56296        40.00941        -2.14587
H         48.26218        40.54049        -2.59680
O         40.47088        33.12187        -1.91114
H         40.36950        34.04900        -2.22009
O         49.99806        41.57192        -2.33546
H         50.74636        41.07934        -2.73474
O         49.38763        30.62070        -0.69486
H         50.21635        30.09679        -0.67682
O         39.73963        27.21923         1.29720
H         39.71283        26.26512         1.52756
O         38.38567        27.73785        -2.94547
H         37.65934        28.18538        -3.42748
