         576
 CSIRO Nanostructure Databank - Neutral Graphene Oxide Data Set
C          5.84131        19.08398         0.01218
C          5.79122        20.44174        -0.16102
C          4.65461        21.21975         0.28105
C          5.83999        23.35779        -0.06939
C          4.68205        22.57738         0.33373
C          5.94237        24.67087         0.25436
C          8.26666        14.72520        -0.36878
C          8.14728        16.12072        -0.91350
C          7.02317        16.94014        -0.31274
C          8.17285        19.06139        -0.82967
C          6.99658        18.30713        -0.39127
C          8.18105        20.41530        -0.96800
C          6.91543        21.15963        -0.81744
C          8.22540        23.38872        -0.98487
C          6.93109        22.66915        -0.81027
C          8.29847        24.70644        -0.63778
C          7.09190        25.52665        -0.19397
C          8.67637        27.14408         0.94612
C          7.46378        26.55345         0.86706
C          8.93015        28.27667         1.88116
C         10.81355        10.47475        -0.13174
C         10.68583        11.83290        -0.78862
C          9.49966        12.61458        -0.31592
C         10.74229        14.74228        -0.44636
C          9.48750        14.01711        -0.40418
C         10.64737        16.20476        -0.12814
C          9.48452        16.86807        -0.85493
C         10.62236        19.13637        -0.35540
C          9.46807        18.34931        -0.90596
C         10.66402        20.55701        -0.62171
C          9.47678        21.07648        -1.42467
C         10.73891        23.33438        -1.51830
C          9.42141        22.61880        -1.49029
C         10.72132        24.83679        -1.42992
C          9.52908        25.50836        -0.83627
C         11.14212        27.25242         0.16995
C          9.75381        26.75657        -0.00402
C         11.48015        28.26853         1.27343
C         10.28490        28.90688         1.98293
C         11.41581        31.14886         2.07686
C         10.37820        30.32543         2.40904
C         11.49831        32.54316         2.55613
C         13.27363         6.22352         0.44695
C         13.22862         7.66352         0.21492
C         12.04970         8.36582         0.23595
C         13.24451        10.41823        -0.47967
C         11.99084         9.77033        -0.11535
C         13.26783        11.89051        -0.67233
C         11.99420        12.64226        -0.76322
C         13.17016        14.75379         0.01209
C         11.99546        14.09101        -0.38084
C         13.14446        16.23312         0.37095
C         11.98606        16.92480        -0.39492
C         13.19608        19.16364         0.24807
C         11.89667        18.38869         0.01176
C         13.21777        20.55251        -0.38401
C         11.91001        21.34428        -0.28451
C         13.18562        23.31830        -1.08701
C         11.99721        22.65835        -1.05168
C         13.26124        24.70724        -1.61072
C         12.02323        25.55619        -1.45249
C         13.54425        27.38614        -0.52279
C         12.15567        26.77485        -0.61144
C         13.35607        28.87441        -0.25447
C         12.44923        29.29682         0.72994
C         13.66006        31.38710         0.95847
C         12.50622        30.61889         1.24195
C         14.15170        32.53351         1.77034
C         11.98719        33.59728         1.81334
C         13.62441        35.54338         2.24562
C         12.44396        34.84749         2.44734
C         13.81487        36.72508         3.09378
C         15.74605         6.31675         0.63447
C         14.44412         5.56142         0.55820
C         15.67127         7.63150        -0.09521
C         14.48137         8.31883        -0.15414
C         15.68804        10.46868        -0.89675
C         14.42121         9.72496        -0.52971
C         15.68740        11.91805        -0.43649
C         14.51506        12.60520        -0.30658
C         15.77036        14.76564         0.37838
C         14.40853        13.95342         0.39523
C         15.66546        16.23531         0.00061
C         14.45062        16.95107         0.06444
C         15.65714        19.08297        -0.11135
C         14.44143        18.35778        -0.05867
C         15.67616        20.53820        -0.24976
C         14.40822        21.22864        -0.45042
C         15.74287        23.38360        -0.82913
C         14.42180        22.74668        -0.41777
C         15.80713        24.73586        -1.25193
C         14.55992        25.42662        -1.70249
C         15.82017        27.59206        -1.70153
C         14.43603        26.96220        -1.75460
C         15.92918        28.96108        -1.72448
C         14.16743        29.86074        -0.82528
C         15.76804        31.69720        -0.38544
C         14.50239        31.02623        -0.12037
C         15.76632        33.14570        -0.06908
C         14.72239        33.64259         0.93018
C         15.66938        35.85135         0.79993
C         14.73454        35.05304         1.40144
C         15.96029        37.54284         2.18017
C         14.87068        37.58427         3.14347
C         18.20074         6.19346         0.07794
C         16.97979         5.52792         0.31111
C         18.20790         7.57501        -0.24629
C         16.92530         8.24977        -0.67210
C         18.18338        10.48705        -0.61017
C         16.90556         9.74500        -0.29292
C         18.16506        11.94224        -0.31725
C         16.95457        12.60597        -0.31532
C         18.19062        14.77384        -0.25051
C         16.86934        14.09587        -0.51196
C         18.18115        16.26300        -0.50256
C         16.87576        16.94680        -0.14802
C         18.11236        19.06560         0.22305
C         16.86686        18.35324        -0.09396
C         18.12250        20.58843         0.14695
C         16.87147        21.25516        -0.25703
C         18.21530        23.30899        -0.73338
C         16.94865        22.66715        -0.60136
C         18.26663        24.70706        -1.06859
C         17.03685        25.40190        -1.33221
C         18.29969        27.58969        -1.50019
C         17.07545        26.80180        -1.90210
C         18.30403        28.95954        -1.24466
C         17.06680        29.71231        -1.28294
C         18.19176        31.80995        -0.47078
C         16.94389        31.06501        -0.81788
C         18.19012        33.30146        -0.41928
C         16.98675        33.95723        -0.23868
C         18.23719        36.10210         0.48333
C         16.91338        35.38988         0.13956
C         18.37828        37.18735         1.53023
C         17.29681        37.62717         2.42315
C         20.69503         6.16209         0.11151
C         19.45615         5.49215         0.14682
C         20.73083         7.59638        -0.08036
C         19.50045         8.21482        -0.69101
C         20.70322        10.49717        -0.26400
C         19.48113         9.75121        -0.65467
C         20.64079        11.94088        -0.11000
C         19.41783        12.63510        -0.15532
C         20.56598        14.83071         0.47250
C         19.34997        14.08621        -0.02606
C         20.71789        16.22434        -0.17859
C         19.42290        16.98599        -0.04535
C         20.58000        19.10631         0.44438
C         19.39456        18.34204         0.18778
C         20.59397        20.49825         0.25172
C         19.42749        21.24063        -0.04003
C         20.70749        23.25264        -0.63878
C         19.47621        22.61021        -0.48463
C         20.81666        24.62843        -1.25075
C         19.50498        25.37337        -1.22659
C         20.84643        27.56910        -1.25090
C         19.54058        26.80969        -1.51522
C         20.75456        29.00723        -0.91993
C         19.53863        29.65233        -0.92310
C         20.73470        31.86476        -0.61892
C         19.49396        31.07538        -0.51381
C         20.66906        33.27621        -0.57080
C         19.45324        34.00380        -0.37353
C         20.70812        35.99747         0.32822
C         19.49208        35.35874         0.12935
C         20.90538        37.05031         1.38280
C         19.61751        37.67496         1.82490
C         23.14532         6.15504         0.41205
C         21.91248         5.46535         0.27799
C         23.14323         7.61559         0.39088
C         21.90758         8.32144         0.04010
C         23.14735        10.51584        -0.01960
C         21.87281         9.77731        -0.05856
C         23.14358        11.98139         0.22663
C         21.87094        12.68838         0.16975
C         23.05678        14.80836         0.73988
C         21.84720        14.05549         0.35363
C         23.09707        16.28717         0.65289
C         21.92195        16.95688         0.38151
C         23.07188        19.10453         1.18794
C         21.81152        18.36335         0.78392
C         22.94410        20.64763         1.23480
C         21.92586        21.16199         0.22190
C         23.13316        23.41028         0.12737
C         21.96467        22.57984        -0.24419
C         23.17613        24.75082        -0.19263
C         21.98305        25.44359        -0.68277
C         23.17032        27.57943        -0.16071
C         21.99463        26.80548        -0.72913
C         23.18908        29.03671        -0.53109
C         21.98829        29.73191        -0.67048
C         23.21345        31.87791        -0.62056
C         21.97388        31.17359        -0.67683
C         23.21492        33.32015        -0.66595
C         21.92376        34.00810        -0.75243
C         23.20941        36.14202        -0.01208
C         21.92155        35.51152        -0.29869
C         23.22408        37.48257         0.56146
C         22.05978        37.98329         1.10147
C         25.58921         6.10178         0.89852
C         24.35991         5.45777         0.45901
C         25.55621         7.62918         1.06357
C         24.33348         8.29984         0.57708
C         25.63098        10.45660         0.63169
C         24.39383         9.73178         0.22749
C         25.60450        11.93591         0.63846
C         24.31964        12.63996         0.49131
C         25.62630        14.82296         0.78405
C         24.35752        14.06951         0.83928
C         25.60299        16.24745         0.89630
C         24.35545        16.97849         0.89941
C         25.60006        19.10173         1.04472
C         24.37151        18.39743         1.01222
C         25.60664        20.58977         1.20213
C         24.30403        21.34734         1.17122
C         25.66592        23.46695         0.44542
C         24.30853        22.80017         0.76504
C         25.65594        24.75102        -0.24229
C         24.44973        25.45876        -0.25760
C         25.68035        27.57818        -0.56261
C         24.46189        26.87127        -0.44827
C         25.67099        29.01704        -0.56713
C         24.43539        29.72873        -0.55020
C         25.68678        31.85325        -0.60584
C         24.43499        31.15448        -0.58696
C         25.67712        33.31688        -0.24982
C         24.39530        34.05542        -0.57213
C         25.64364        36.24085        -0.34783
C         24.37834        35.47486        -0.34127
C         25.66730        37.62109         0.19764
C         24.48313        38.20778         0.58547
C         28.08530         6.12137         0.72711
C         26.90250         5.44367         0.71693
C         28.15313         7.59316         0.95260
C         26.87507         8.41701         1.22780
C         28.14403        10.46311         0.35609
C         26.86964         9.65091         0.31259
C         28.13221        11.92834         0.76021
C         26.85249        12.69593         0.54340
C         28.13314        14.76388         0.96395
C         26.84090        14.07775         0.71310
C         28.13525        16.26432         1.09379
C         26.83296        16.97936         0.96207
C         28.11361        19.09869         1.20672
C         26.82291        18.38191         0.99582
C         28.11991        20.59831         1.17156
C         26.86495        21.33010         0.87738
C         28.16020        23.30569         0.07947
C         26.88747        22.63944         0.49086
C         28.18232        24.66836        -0.55030
C         26.87228        25.38013        -0.89532
C         28.13855        27.57134        -0.76145
C         26.91770        26.87709        -0.66967
C         28.12315        28.99837        -0.78379
C         26.90331        29.71929        -0.70416
C         28.16345        31.90262        -1.04858
C         26.88090        31.16438        -0.72551
C         28.14199        33.37741        -0.72667
C         26.94434        34.04110        -0.60619
C         28.21629        36.14149        -0.01504
C         26.93439        35.51820        -0.52027
C         28.15490        37.65219         0.02690
C         26.94472        38.29673         0.22734
C         30.54466         6.12617         0.38333
C         29.37977         5.45786         0.65159
C         30.48766         7.52746        -0.22219
C         29.36917         8.31184         0.44486
C         30.54290        10.49277        -0.21335
C         29.31189         9.78372         0.22109
C         30.51037        11.99782        -0.23164
C         29.33637        12.72008         0.31007
C         30.68775        14.74707         0.84960
C         29.37485        14.05527         0.56174
C         30.66843        16.27239         0.74977
C         29.41632        17.01128         0.91354
C         30.64365        19.16874         0.97417
C         29.40674        18.39096         0.99220
C         30.66746        20.54123         0.99393
C         29.42386        21.32879         1.06739
C         30.70563        23.41718         0.22986
C         29.43563        22.76546         0.63998
C         30.70035        24.76583        -0.24316
C         29.44752        25.46407        -0.52386
C         30.67617        27.55442        -1.02957
C         29.40621        26.82859        -0.76982
C         30.68837        29.05412        -1.05335
C         29.38198        29.76992        -0.94527
C         30.66142        31.94419        -0.70012
C         29.37360        31.19617        -0.43001
C         30.61400        33.35909        -0.75986
C         29.40383        34.07069        -0.74483
C         30.67603        36.25379        -0.45162
C         29.38309        35.58473        -0.84149
C         30.62334        37.67513        -0.16472
C         29.40845        38.33798         0.01062
C         32.98796         6.17334         0.73718
C         31.81744         5.49670         0.68466
C         33.10468         7.58264         0.30534
C         31.81702         8.29842        -0.17389
C         33.05041        10.44929        -0.09103
C         31.83819         9.76923        -0.15955
C         33.11151        11.89877        -0.35765
C         31.79749        12.75023        -0.34621
C         33.14144        14.77633         0.27001
C         31.84772        14.12594         0.10963
C         33.16191        16.23893         0.64437
C         31.86082        16.94964         0.73316
C         33.12777        19.12227         0.51476
C         31.94287        18.40431         1.13609
C         33.14362        20.60408         0.55596
C         31.94869        21.34911         1.12519
C         33.14427        23.42039         0.36499
C         31.90271        22.74690         0.50500
C         33.15246        24.80161         0.03440
C         31.93991        25.45128        -0.29315
C         33.20143        27.66096        -0.49756
C         31.98425        26.85149        -0.76297
C         33.15946        29.09146        -0.54512
C         31.93299        29.79422        -0.73227
C         33.13184        31.93089        -0.50520
C         31.90091        31.21357        -0.68626
C         33.06814        33.39132        -0.31638
C         31.90725        34.12841        -0.96182
C         33.12445        36.28924        -0.35027
C         31.86605        35.57962        -0.52800
C         33.06667        37.72936        -0.22460
C         31.87679        38.38537        -0.11070
C         34.16470         8.42853         0.80946
C         35.37266        10.53988         0.87590
C         34.23692         9.79515         0.47765
C         35.62432        11.90569         0.44044
C         34.42171        12.61130        -0.21510
C         35.67655        14.83729         0.00262
C         34.39286        14.11379        -0.22458
C         35.62908        16.29886         0.28069
C         34.41567        17.00322         0.41412
C         35.65129        19.11989         0.44982
C         34.42689        18.40649         0.46208
C         35.69374        20.58110         0.58265
C         34.44231        21.32156         0.58734
C         35.63511        23.47423         0.65391
C         34.39210        22.70272         0.58240
C         35.59637        24.87839         0.20943
C         34.41266        25.54100        -0.01390
C         35.60835        27.75003        -0.09515
C         34.40339        26.99458        -0.21119
C         35.60951        29.14373        -0.23032
C         34.37445        29.83311        -0.37678
C         35.60129        32.00687        -0.22396
C         34.34952        31.26246        -0.35247
C         35.60193        33.39762        -0.17912
C         34.36219        34.15912        -0.10849
C         34.32876        35.61698        -0.30336
C         36.73019        12.74277         0.90168
C         38.01308        14.85145         0.78230
C         36.86901        14.09722         0.51860
C         38.14412        16.23353         0.19403
C         36.83742        16.99716         0.25052
C         38.20897        19.00618         0.59833
C         36.85731        18.39954         0.34417
C         38.26486        20.52261         0.80713
C         36.91438        21.23020         0.63525
C         38.11883        23.36498         0.00167
C         36.95320        22.70777         0.70043
C         38.05302        24.81290        -0.34776
C         36.89284        25.59263         0.19398
C         38.16142        27.77062        -0.28668
C         36.90411        27.07269         0.09771
C         38.10422        29.19145        -0.28500
C         36.87206        29.88287        -0.21911
C         36.83042        31.28493        -0.22128
C         39.23740        17.15736         0.75701
C         40.47297        19.03934        -0.52433
C         39.37162        18.36916        -0.12051
C         40.44941        20.49598        -0.54624
C         39.38009        21.18129        -0.02835
C         40.46650        23.33194        -1.00117
C         39.47559        22.68367         0.10310
C         40.51228        24.76863        -0.61542
C         39.29098        25.58806        -0.90730
C         39.31971        27.04402        -0.50214
C         41.68762        21.20482        -0.88957
C         41.75761        22.54668        -0.95873
O         33.35661        15.22213         1.69133
O         30.01162        29.60814        -2.24763
O         35.42692        12.04941        -1.04697
O         21.80914        35.10190        -1.69358
O         17.99108        19.88529         1.43140
O         14.35195        32.50030         2.97950
O         28.06743        19.87695         2.45398
O         24.97492        23.61737         1.75389
O         24.99099        21.09964         2.43637
O         28.30546        23.44455        -1.38270
O         20.47892        27.19930        -2.60868
O         29.45070        22.43640         2.06397
O         17.49170        36.39959        -0.73823
O         25.37759         6.76677         2.22322
O         15.55099        37.23821         0.86637
O         11.17631        25.53658        -2.63601
O         22.42132        21.42160        -1.12100
O         33.44107        33.78385         1.02732
O          9.29067        26.83313        -1.40607
O          6.50764        21.93682        -2.00147
O         32.78046         7.76120        -1.12837
O         22.23030        18.50755         2.20793
O         13.23247        19.37826         1.65402
O         31.46014        26.98929        -2.13472
O         29.23927         7.96998         1.86499
O         32.83692        19.89367        -0.69691
O         26.32609        36.16830        -1.67325
O         28.19617        15.39150         2.29611
O         36.43200        23.31896         1.90188
O         25.59735        11.08188         1.93723
O         14.45633        33.66468        -0.51210
O         14.77348        29.67824        -2.05824
O         12.77187        12.37902        -1.99572
O         18.78467        31.26952         0.78050
O         10.91979        18.68766         1.02852
O         12.20727        27.52078         2.29485
O         32.49383        12.40222        -1.58007
O         38.66760        18.10435         1.77635
O          9.78802        17.55547        -2.11484
O         30.23714        11.23580        -1.45680
O         23.56881        14.36786         2.05997
O         10.03919        23.00108        -2.76905
O         18.83462        10.24550        -1.89125
O         24.01660        10.08295        -1.15181
O         35.14284        14.63473        -1.36508
O         37.10920        26.38178         1.40416
O         13.96090        24.81665        -2.90200
O         37.64557        23.80156        -1.32114
O         10.30144        16.25198         1.27647
H         11.14945        16.20532         1.79491
O          7.78837        15.93451        -2.31821
H          8.29260        16.61364        -2.82815
O         22.37172        21.01856         2.49929
H         23.01981        20.78161         3.19897
O         21.34335        36.26818         2.57332
H         21.60679        36.91252         3.26468
O         14.27530        23.10054         0.99506
H         13.48873        22.59898         1.33526
O         39.11655        25.63032        -2.36479
H         38.21018        25.94766        -2.56056
O         12.91605        16.42476         1.79763
H         13.02347        17.40265         1.97984
O         12.00008        33.50918         0.45577
H         12.41812        34.29632         0.05226
O         10.36542        11.54024        -2.19047
H         11.20543        11.67440        -2.69476
O         15.81767        10.49264        -2.34328
H         15.15646        11.12434        -2.70012
O         29.19344        31.12256         1.00909
H         29.42188        31.99556         1.39292
O         38.63946        20.77085         2.19723
H         38.88178        19.90119         2.59255
O         30.86782        14.47856         2.28286
H         30.01998        14.73224         2.72331
O         14.24942        26.84124         0.61286
H         13.70196        26.99893         1.42464
O         32.18114        21.53688         2.54108
H         31.35837        21.92330         2.91935
O         28.28020        11.84011         2.22087
H         27.46353        11.39326         2.55878
O         16.30894        14.75562         1.72811
H         16.15626        15.63074         2.14339
O          6.62749        26.27914        -1.34897
H          7.41887        26.73725        -1.72392
O          9.76648        27.99845         3.03854
H         11.54331        27.25902         2.97750
O         23.00814        27.57142         1.30382
H         23.16471        26.65414         1.61689
O         19.58625         7.80668        -2.09508
H         18.74289         8.10417        -2.52327
O         18.23279        16.35539        -1.99153
H         19.13268        16.02772        -2.24626
O         28.33805        31.81757        -2.48669
H         27.59751        32.29325        -2.91723
O         16.77059         9.77174         1.14490
H         16.60807        10.69526         1.43220
O         14.12581        13.57194         1.77168
H         14.90714        13.86247         2.30931
O         38.51345        16.04474        -1.20729
H         37.83131        15.47600        -1.62583
O         21.14834        24.43938        -2.67278
H         21.06510        25.32646        -3.09831
O         25.69340        33.32630         1.23783
H         26.37640        32.68466         1.53107
O         30.14501         7.38727        -1.61773
H         30.98152         7.21625        -2.10556
O         17.19047        26.62201        -3.36953
H         16.30375        26.37499        -3.71108
O         16.88968         8.08842        -2.12087
H         16.44813         8.88275        -2.51799
O         40.01892        22.99060         1.39315
H         39.66552        22.31823         2.02985
O         11.84827        21.65209         1.15913
H         12.21432        20.81906         1.61013
O         12.33268        16.83781        -1.78521
H         11.55151        17.13328        -2.31610
O          9.71765        20.55045        -2.75938
H         10.02676        21.31180        -3.31258
O         28.43317        35.67894         1.34445
H         27.78174        36.11796         1.93032
O         32.24826        18.37349         2.55990
H         31.56374        17.83793         3.01390
O         29.13760        35.91890        -2.22890
H         29.89967        35.59559        -2.75496
O         39.93265        23.07996        -2.29110
H         39.42251        23.87454        -2.58835
O         26.91725         8.88720         2.57591
H         26.67601         8.13457         3.15919
O         20.95499        15.98235        -1.60850
H         21.25196        16.82521        -2.01301
O         26.73687         9.11630        -1.02433
H         26.67763         9.85132        -1.66969
O         26.68250        25.23566        -2.33649
H         27.09315        24.37809        -2.59381
O         13.77629        27.35065        -2.95950
H         13.48662        26.52844        -3.42609
O         16.47123        14.28513        -1.89292
H         16.95272        15.07860        -2.24075
O         32.15310        34.14267        -2.40418
H         31.99452        33.23684        -2.74678
O         20.33644        15.03383         1.89173
H         21.19268        15.24074         2.32559
O         15.91317         6.66935         2.07017
H         15.84970         5.83649         2.58430
H          4.98868        18.55877         0.46820
H          3.76775        20.67507         0.63698
H          3.81710        23.12722         0.73275
H          5.12358        25.16248         0.80210
H          7.33504        14.15255        -0.23899
H          6.12396        16.40479         0.02884
H          6.65593        26.90279         1.52980
H          8.03848        28.89297         2.13234
H          9.87801         9.95986         0.13625
H          8.54561        12.07642        -0.20533
H          9.53915        30.71118         3.00610
H         11.37620        32.70035         3.63794
H         12.31776         5.67939         0.49401
H         11.10912         7.85201         0.48567
H         11.79734        35.21808         3.26136
H         13.02672        36.86940         3.85112
H         14.45714         4.47252         0.72212
H         14.91873        38.31619         3.96479
H         16.99676         4.45184         0.54700
H         17.61663        37.96430         3.42119
H         19.44145         4.40393         0.30857
H         19.69962        38.43245         2.62226
H         21.90146         4.36735         0.34415
H         22.05302        38.98357         1.56129
H         24.37888         4.38505         0.21480
H         24.48455        39.23385         0.98387
H         26.90167         4.35947         0.52491
H         26.94427        39.38541         0.39696
H         29.42624         4.39721         0.94757
H         29.41400        39.43000         0.15376
H         33.90047         5.66894         1.08791
H         31.78793         4.44611         1.01333
H         34.01427        38.28418        -0.16074
H         31.85670        39.47533         0.03604
H         34.91652         7.99542         1.48499
H         36.13934        10.03377         1.48126
H         36.55700        33.94202        -0.22564
H         35.27352        36.17929        -0.25266
H         37.53450        12.27009         1.48429
H         38.90793        14.35689         1.19023
H         39.03350        29.76779        -0.40529
H         37.77381        31.85012        -0.19220
H         40.15785        16.64525         1.11854
H         41.40798        18.51253        -0.76317
H         41.06518        25.01144         0.30730
H         40.23862        27.59598        -0.75455
H         42.59425        20.59041        -1.00019
H         42.70966        23.05635        -1.16594
