         320
 CSIRO Nanostructure Databank - Neutral Graphene Oxide Data Set
C         30.32574        31.84396         0.40467
C         30.50741        33.04216         0.84058
C         30.36062        36.17060         0.98661
C         30.37954        37.35221         0.64117
C         30.91604        40.74436         1.25539
C         30.76909        41.79946         1.86056
C         32.70644        28.93774         0.24022
C         31.66625        29.59169         0.16775
C         32.76857        31.61336         1.02906
C         31.40511        30.91844         0.74801
C         32.86762        33.11320         1.36110
C         31.54206        33.89628         1.08971
C         32.73677        36.03583         0.59310
C         31.56920        35.35374         1.39634
C         32.78948        37.56409         0.84724
C         31.48257        38.32767         0.74214
C         32.71923        40.31274        -0.22624
C         31.36662        39.74616         0.22411
C         32.73942        41.61921        -0.65016
C         30.97544        43.15464         2.27183
C         32.83337        43.97356         0.66916
C         31.94685        43.84236         1.52979
C         35.32909        27.54234        -0.55063
C         35.24048        28.75445         0.06465
C         34.05894        29.35987         0.75157
C         35.32478        31.61785         1.08640
C         34.06202        30.92273         0.50711
C         35.37616        33.12620         0.76442
C         34.01438        33.80048         0.58145
C         35.25351        35.95487         0.03714
C         34.10708        35.33213         0.87694
C         35.32223        37.45731         0.20773
C         34.12864        38.29322         0.67459
C         35.24300        40.38200        -0.20879
C         33.98868        39.49000        -0.31972
C         35.21841        41.65679        -1.12809
C         33.96386        42.41698        -0.72962
C         35.20315        44.48507        -0.12764
C         33.95510        43.67900        -0.14876
C         35.32816        45.93899        -0.37367
C         37.77506        27.31939        -0.59659
C         36.49256        26.95794        -0.73585
C         37.73070        28.88023        -0.47584
C         36.61155        29.34325         0.48902
C         37.86347        31.65522         0.37162
C         36.62998        30.87581         0.71659
C         37.79702        33.15600         0.09626
C         36.54229        33.83954         0.62561
C         37.78559        35.98504         0.28702
C         36.59141        35.29368         0.37185
C         37.70312        37.29437        -0.54192
C         36.48045        38.08626        -0.09858
C         37.79591        40.28849        -0.06436
C         36.52385        39.54548        -0.50808
C         37.83184        41.65664        -0.88898
C         36.50379        42.39026        -0.86465
C         37.65242        44.63376        -1.05684
C         36.50068        43.79612        -0.47485
C         37.78485        46.07603        -0.39405
C         36.36430        46.58940        -0.55250
C         40.18452        24.60591        -1.28612
C         39.17490        25.20474        -0.92031
C         40.34369        27.28808        -0.66486
C         39.02368        26.53736        -0.27253
C         40.25607        28.81110        -0.85239
C         39.10245        29.42448        -0.04386
C         40.35689        31.55294         0.46985
C         39.10685        30.98218        -0.21554
C         40.42009        33.09282         0.49021
C         39.13695        33.87618         0.42360
C         40.38310        35.98378         1.17259
C         38.98593        35.29404         1.02716
C         40.48238        37.48097         1.15391
C         38.93413        38.17793        -0.75629
C         40.37331        40.26112        -0.35948
C         39.04414        39.49760        -0.39277
C         40.25560        41.78709        -0.09692
C         38.92522        42.54988        -0.29067
C         40.29419        44.61750        -1.08313
C         39.00032        43.88001        -1.03199
C         40.31439        46.11947        -0.79007
C         38.92890        46.84162        -1.06272
C         40.28217        48.82358        -0.83908
C         39.21203        48.24635        -0.50105
C         42.68006        24.72757        -2.08789
C         41.61055        24.98593        -1.04578
C         42.69703        27.47867        -1.41251
C         41.48262        26.63921        -0.99345
C         42.80398        28.71885        -0.51078
C         41.54606        29.56079        -0.54292
C         42.83005        31.59935        -0.01356
C         41.58225        30.87465        -0.14026
C         42.89832        32.85165         0.58596
C         41.69872        33.63297         1.17090
C         42.87265        36.05286         0.72049
C         41.69222        35.23119         1.16906
C         42.81435        37.47947         0.41567
C         41.55903        38.18129         0.64844
C         42.80151        40.41079         0.20402
C         41.50481        39.70313         0.65121
C         42.84529        41.75070        -0.07893
C         41.56254        42.52899        -0.13572
C         42.89603        44.59194        -0.95059
C         41.59140        43.86780        -0.81266
C         42.85284        46.08365        -1.26899
C         41.53719        46.83782        -1.37829
C         42.85151        48.83426        -1.31765
C         41.54944        48.35862        -1.21112
C         43.74409        25.41167        -1.82524
C         45.20673        27.19801        -0.64724
C         44.00061        26.68292        -1.38269
C         45.34284        28.75622        -0.79768
C         44.06954        29.48210        -0.83169
C         45.39891        31.57591        -0.25871
C         44.07821        30.98701        -0.53454
C         45.40756        32.85159         0.38090
C         44.20942        33.32379         0.87584
C         45.32130        35.92535         0.09402
C         44.11858        35.47287         0.78136
C         45.29483        37.46270         0.03999
C         44.02369        38.17103         0.32256
C         45.24811        40.38674         0.68195
C         44.09384        39.64186        -0.00886
C         45.32023        41.80467         0.05634
C         44.14308        42.46001        -0.24609
C         45.34338        44.62942        -0.52354
C         44.16689        43.91523        -0.52301
C         45.29684        46.14019        -0.45321
C         44.07543        46.87921        -0.87249
C         43.99190        48.27942        -1.35268
C         47.61647        27.29901        -0.99999
C         46.54117        26.70867        -1.12271
C         47.91286        28.76035        -1.13197
C         46.54155        29.45329        -0.82020
C         47.84822        31.57461        -0.19855
C         46.58875        30.86193        -0.46693
C         47.88601        32.89068         0.18490
C         46.65979        33.66600         0.63419
C         47.88883        35.89230         0.13771
C         46.62782        35.07014        -0.08432
C         47.86566        37.36789        -0.28701
C         46.62575        38.05165         0.50404
C         47.86941        40.36283         0.55289
C         46.59009        39.60234         0.65850
C         47.87193        41.90076         0.40633
C         46.64692        42.37124        -0.42738
C         47.97847        44.69440        -0.42337
C         46.65219        43.91280        -0.57529
C         47.68425        46.10526        -0.19655
C         46.64533        46.72088        -0.45142
C         50.27013        28.74729         0.06898
C         48.89875        29.30522        -0.10836
C         50.29410        31.42987         0.47717
C         49.17658        30.84209        -0.40436
C         50.41857        32.90682         0.37334
C         49.16264        33.67630        -0.07573
C         50.50408        35.83658         0.25651
C         49.13599        35.13554         0.54095
C         50.43019        37.38191         0.44519
C         49.17191        38.11276         0.03661
C         50.36003        40.30226         0.62467
C         49.10131        39.66126         0.00979
C         50.45714        41.79872         0.51251
C         49.25622        42.49224        -0.17288
C         50.15664        44.42609         0.90548
C         49.15487        44.02432         0.12241
C         51.15597        29.22931         0.80329
C         52.34628        31.45348         1.62046
C         51.32856        30.65383         1.00139
C         52.39281        32.68600         1.81141
C         51.62209        33.63951         1.00307
C         52.26976        36.00127         1.83513
C         51.53625        35.09472         1.19164
C         52.24026        37.29107         2.05908
C         51.37321        38.10350         1.38971
C         52.17730        40.38402         2.22914
C         51.03237        39.51391         1.77743
C         52.17580        41.62278         2.17569
C         51.38319        42.57760         1.47685
C         51.17144        43.92335         1.56442
O         39.68828        44.05675        -2.29201
O         44.37130        46.66704         0.53401
O         50.30065        37.91842        -0.90483
O         37.63336        31.23941         1.74378
O         43.93056        30.44879        -1.89684
O         51.60897        33.27384        -0.40051
O         47.49895        44.27889        -1.72994
O         37.60785        33.31979        -1.34311
O         40.84351        42.38808         1.12106
O         45.13283        36.65796        -1.15455
O         32.11176        38.10648         2.03360
O         47.40537        39.94760         1.86050
O         31.99882        30.94809         2.07670
O         44.25868        34.44355         1.70924
O         51.21505        40.90294        -0.37120
O         41.05685        35.62338         2.45396
O         42.22693        46.36703        -2.55202
O         42.35472        43.79028        -2.05558
O         37.33510        36.81093        -1.95408
O         36.09198        44.11285         0.96859
O         38.03294        45.95102         0.98600
H         37.35187        45.32584         1.35727
O         49.22545        33.74864        -1.51540
H         50.06630        34.22700        -1.73688
O         46.81480        41.79832        -1.74465
H         45.96463        41.85945        -2.23036
O         42.01952        24.51729         0.20007
H         41.23710        24.37290         0.77078
O         50.96123        35.59524        -1.06642
H         50.87678        36.43602        -1.58076
O         37.39136        29.40141        -1.77548
H         37.90679        28.89340        -2.44357
O         44.39682        39.72461        -1.43456
H         43.65113        39.32122        -1.92793
O         38.72687        46.94140        -2.44647
H         37.77747        47.11686        -2.62191
O         38.48888        35.14555         2.37550
H         39.26435        35.02924         2.97226
O         39.98502        28.96942        -2.27141
H         40.82009        28.69378        -2.74086
O         48.23456        29.20105         1.15601
H         48.88917        29.34499         1.87137
O         42.45509        27.93298        -2.77130
H         42.56157        27.15357        -3.36004
O         31.79094        35.55511         2.78787
H         31.11387        35.05889         3.29253
O         39.33917        29.02473         1.30698
H         38.78509        29.58860         1.90108
O         39.46724        38.08892         1.82001
H         38.87990        37.42381         2.23474
O         39.97321        37.54479        -1.40091
H         39.62069        36.72591        -1.84178
O         33.97508        38.86463        -1.63949
H         33.76772        39.57131        -2.29379
O         38.25003        41.38471        -2.24231
H         37.82169        40.54855        -2.54246
O         49.15534        35.00905         1.99095
H         48.25047        34.72741         2.29257
O         30.42439        39.72124        -0.84517
H         30.34895        40.63316        -1.20157
O         48.29624        29.05114        -2.45353
H         47.66764        28.62082        -3.06736
O         41.24931        40.03633         2.01449
H         41.25929        41.01723         2.11656
O         34.12505        29.08669         2.15292
H         33.87355        28.15077         2.29810
O         49.03424        39.93182        -1.40425
H         49.92919        40.25091        -1.68346
O         40.60739        46.19109         0.62181
H         39.76883        46.06775         1.13672
O         39.03704        26.33998         1.14652
H         38.97350        27.23721         1.56393
O         47.64084        37.46507        -1.70183
H         48.07679        38.29470        -2.01657
O         35.06980        41.30172        -2.53298
H         35.90618        41.53228        -2.99336
O         31.55041        42.25051        -0.89013
H         31.71039        43.18188        -1.14590
O         36.83547        28.73973         1.77908
H         36.04683        28.95271         2.33711
O         35.19669        31.53782         2.51666
H         36.07638        31.75476         2.90075
O         34.48259        35.54878         2.23569
H         33.79201        35.15177         2.81923
O         36.61104        39.38622        -1.95241
H         35.75785        38.97382        -2.23874
O         34.98070        35.72970        -1.37542
H         35.74827        36.10802        -1.88515
O         33.10822        33.23176         2.76966
H         32.78668        32.40367         3.19553
O         46.75410        33.90648         2.06642
H         46.56345        33.06990         2.53915
O         49.62202        30.99904        -1.74758
H         49.55856        31.96312        -1.96732
O         33.64880        33.57210        -0.78614
H         34.30396        34.01570        -1.37385
O         47.74435        42.48141         1.71066
H         47.61608        41.75391         2.36339
O         39.22060        31.31510        -1.60670
H         38.62282        30.70430        -2.10597
O         42.91769        28.29859         0.86608
H         42.24759        27.60327         1.04219
O         38.26854        35.77644        -2.35537
H         37.92440        34.92491        -1.92799
O         35.25212        40.99666         1.09490
H         34.98287        40.31679         1.76749
O         44.87011        40.55074         2.05648
H         45.68261        40.72416         2.58001
O         38.50739        42.99925         1.01479
H         38.50916        42.21188         1.61159
O         37.78009        40.53316         1.34426
H         36.90071        40.93712         1.56519
O         45.07525        26.88583         0.73482
H         45.90941        27.13104         1.18658
O         37.27412        44.80782        -2.42870
H         38.08928        44.67882        -2.97536
O         49.41815        42.37108        -1.56284
H         48.63164        42.76403        -2.01691
O         46.73777        37.51811         1.84698
H         47.23776        38.16759         2.39485
O         41.70437        33.24160         2.56301
H         41.48073        34.03473         3.10791
O         32.38051        35.88272        -0.78213
H         33.17566        36.02332        -1.34784
O         46.65790        34.70808        -1.48331
H         46.68571        35.54661        -2.00185
O         34.14907        31.08282        -0.91181
H         33.37955        30.64153        -1.33164
O         50.04773        39.44655         2.82199
H         50.43764        38.95794         3.57777
O         30.31312        43.71310         3.29137
H         29.69331        43.07587         3.69756
O         40.30125        31.17159         1.85418
H         41.01156        31.64832         2.34948
O         40.97389        40.16150        -1.67325
H         40.80017        39.25214        -2.00641
O         34.50439        38.73353         2.00141
H         33.71233        38.62027         2.58355
O         40.05741        33.81883        -0.71586
H         38.34786        32.80084        -1.77021
