         424
 CSIRO Nanostructure Databank - Neutral Graphene Oxide Data Set
C          1.38469         3.32493         0.23655
C          0.22426         3.98862         0.61259
C          1.29381         6.15123         0.24538
C          0.18343         5.38873         0.64860
C          1.26899         7.66109         0.42988
C         -0.02127         8.35533         0.11293
C          1.16704        10.48814        -0.10158
C         -0.03363         9.71717        -0.02988
C          1.12758        11.97808         0.13880
C         -0.01241        12.69652        -0.53710
C          1.14814        14.85956        -0.44846
C          0.00489        14.04280        -0.73678
C          1.15604        16.26175        -0.51382
C         -0.04519        17.02963        -0.66405
C          1.15943        19.14362        -0.33613
C         -0.04291        18.39706        -0.56065
C          1.14698        20.57477        -0.18569
C         -0.06275        21.31752        -0.18862
C          1.12694        23.42145         0.17385
C         -0.07116        22.68760        -0.01686
C          1.09591        24.85200         0.42538
C         -0.07200        25.60974         0.46599
C          1.08660        27.78592         0.55392
C         -0.07741        27.02378         0.52951
C          1.11739        29.23113         0.39128
C         -0.08659        29.98415         0.33526
C          1.14690        32.08821         0.17776
C         -0.07035        31.35930         0.24110
C          1.15979        33.53009         0.10657
C         -0.04529        34.29206         0.03608
C          1.20276        36.38339         0.02027
C         -0.02658        35.66738        -0.00852
C          1.23621        37.80787        -0.01812
C          3.76474         3.40552        -0.45674
C          2.53728         4.06252        -0.13543
C          3.61800         6.24699        -0.75049
C          2.46899         5.48640        -0.14039
C          3.74115         7.67453        -0.19152
C          2.43348         8.40225        -0.17272
C          3.66811        10.54708        -0.36263
C          2.40849         9.79870        -0.24781
C          3.62308        11.99962        -0.27679
C          2.43380        12.67535        -0.14603
C          3.60701        14.83682        -0.66281
C          2.42048        14.17869         0.02694
C          3.63012        16.32075        -0.38740
C          2.40434        17.00210        -0.37096
C          3.62744        19.14867        -0.16232
C          2.39136        18.43551        -0.27919
C          3.61713        20.57423        -0.04313
C          2.37663        21.28833        -0.02087
C          3.61558        23.41589         0.26668
C          2.36347        22.70978         0.15664
C          3.63293        24.82933         0.40912
C          2.36522        25.53585         0.69175
C          3.60440        27.80296         0.46806
C          2.35871        27.08010         0.75608
C          3.58681        29.16637         0.29986
C          2.35306        29.92638         0.31244
C          3.61051        32.08688         0.12022
C          2.37827        31.36177         0.18981
C          3.63721        33.49589         0.14977
C          2.39924        34.22427         0.12259
C          3.66393        36.35750         0.11851
C          2.42172        35.65269         0.08644
C          3.66958        37.77750         0.09499
C          2.43323        38.48485         0.01995
C          6.23102         3.45764        -0.77764
C          4.96798         4.12874        -0.62147
C          6.16608         6.29622        -0.68453
C          4.94755         5.54443        -0.64975
C          6.16332         7.69675        -0.69293
C          4.86772         8.43928        -0.89887
C          6.14206        10.58772        -0.41397
C          4.87972         9.89176        -0.49158
C          6.12606        12.01253        -0.28168
C          4.89181        12.72905        -0.31977
C          6.11621        14.85803        -0.34221
C          4.89985        14.12597        -0.37074
C          6.10501        16.29209        -0.33624
C          4.86360        17.01499        -0.31086
C          6.11273        19.14035        -0.09898
C          4.86752        18.43856        -0.18778
C          6.09342        20.57700         0.05634
C          4.85322        21.28128         0.06256
C          6.08351        23.42117         0.25194
C          4.85027        22.70630         0.19362
C          6.07119        24.84816         0.26432
C          4.83831        25.54392         0.34616
C          6.13328        27.71913         0.39459
C          4.83350        27.02860         0.06281
C          6.09378        29.19527         0.70524
C          4.88041        29.86989         0.08999
C          6.14895        32.09389         0.29564
C          4.89113        31.36438         0.03284
C          6.13497        33.50989         0.27172
C          4.88962        34.21554         0.18778
C          6.13507        36.36002         0.25463
C          4.90086        35.63765         0.18347
C          6.11171        37.79014         0.26949
C          4.91141        38.47032         0.17483
C          8.70228         3.43338        -1.15115
C          7.41645         4.15870        -0.83860
C          8.64977         6.29032        -0.52352
C          7.43288         5.58489        -0.70496
C          8.66198         7.71137        -0.47504
C          7.43283         8.46030        -0.92947
C          8.59210        10.58087        -0.19854
C          7.37067         9.89635        -0.45125
C          8.58627        12.01411        -0.11367
C          7.35401        12.72746        -0.22665
C          8.58315        14.87830        -0.28614
C          7.34957        14.15371        -0.25972
C          8.56614        16.28369        -0.36966
C          7.33813        16.99913        -0.32819
C          8.59794        19.11800        -0.06245
C          7.33900        18.43327        -0.20276
C          8.55950        20.53446         0.36966
C          7.30383        21.28969         0.23296
C          8.56416        23.44196         0.29274
C          7.32447        22.70572         0.27133
C          8.52187        24.86762         0.25125
C          7.31719        25.57120         0.23421
C          8.58008        27.78390         0.01446
C          7.30354        27.03092         0.30588
C          8.58868        29.24523         0.38320
C          7.38920        29.93905         0.46094
C          8.59345        32.10542         0.41383
C          7.36946        31.38838         0.43148
C          8.60490        33.50461         0.28814
C          7.37396        34.23020         0.28725
C          8.62609        36.36731         0.24365
C          7.37943        35.65523         0.28002
C          8.65207        37.79802         0.24171
C          7.38233        38.58360         0.46939
C         11.14461         3.49535        -0.67509
C          9.93887         4.16805        -0.69269
C         11.08051         6.20594         0.03912
C          9.89917         5.55778        -0.37291
C         11.00233         7.65774         0.48594
C          9.82200         8.41481        -0.11260
C         11.02932        10.52749         0.37791
C          9.80461         9.82719        -0.03105
C         11.03705        12.04246         0.34126
C          9.79647        12.76090         0.00320
C         11.07525        14.88840        -0.06360
C          9.82125        14.15253        -0.14788
C         11.08135        16.25966        -0.22041
C          9.84683        17.02194        -0.64949
C         11.06565        19.15331         0.00698
C          9.81759        18.46368        -0.19651
C         11.09533        20.65348        -0.07489
C          9.84407        21.30379         0.46183
C         11.06632        23.44099         0.31006
C          9.82136        22.77353         0.34924
C         11.06482        24.90246        -0.03453
C          9.80685        25.58992         0.43148
C         11.10772        27.78627         0.29574
C          9.82437        27.06836         0.45549
C         11.07346        29.21005         0.29343
C          9.85575        29.90747         0.38083
C         11.01283        32.03025        -0.22070
C          9.91159        31.39469         0.62710
C         11.06951        33.52204        -0.00494
C          9.86466        34.21947         0.15938
C         11.08740        36.35273         0.00171
C          9.85758        35.65322         0.14622
C         11.09262        37.78920        -0.03604
C          9.84692        38.47872         0.10039
C         13.55172         3.34551        -0.48336
C         12.36232         4.10762        -0.25857
C         13.49820         6.25195         0.47717
C         12.30391         5.49129         0.16965
C         13.51616         7.69118         0.38582
C         12.31406         8.39924         0.33698
C         13.53658        10.52395         0.24521
C         12.33343         9.81917         0.28659
C         13.57867        11.99517        -0.07589
C         12.30830        12.74203         0.20430
C         13.55753        14.80614         0.32253
C         12.32293        14.13742         0.13049
C         13.57927        16.26120         0.27358
C         12.33439        17.02136        -0.10376
C         13.44801        19.15971         0.64136
C         12.26459        18.48053         0.14085
C         13.49501        20.61661         0.71831
C         12.34501        21.32287         0.45596
C         13.53607        23.50456         0.49310
C         12.30367        22.77026         0.46176
C         13.54165        24.93124         0.39348
C         12.32427        25.65046         0.32456
C         13.58507        27.79904         0.68537
C         12.30915        27.06236         0.35631
C         13.56211        29.23718         0.24814
C         12.34315        29.93417         0.18874
C         13.54467        32.04145        -0.13458
C         12.33659        31.33329        -0.02124
C         13.54177        33.48715        -0.21455
C         12.31019        34.20516        -0.12096
C         13.54196        36.34053        -0.26508
C         12.31536        35.63882        -0.11699
C         13.53828        37.78111        -0.31136
C         12.30530        38.47597        -0.19274
C         16.09980         3.33466        -0.26847
C         14.78575         3.62130         0.12780
C         15.98610         6.25073         0.61125
C         14.71142         5.64264         0.79709
C         15.98541         7.66530         0.42461
C         14.78384         8.38253         0.40214
C         15.99165        10.54876         0.46627
C         14.79107         9.83655         0.33638
C         16.03080        11.99380         0.53003
C         14.82266        12.71466         0.38575
C         16.03634        14.84773         0.70937
C         14.80881        14.12582         0.51428
C         16.02812        16.28259         1.12849
C         14.63164        16.94830         1.06491
C         16.27098        19.39012         1.33968
C         14.41009        18.37354         1.25343
C         16.06404        20.62612         0.79959
C         14.77428        21.38413         1.10140
C         15.95741        23.46946         0.21420
C         14.77505        22.79694         0.53573
C         15.99839        24.89745         0.10450
C         14.79719        25.63815         0.29826
C         16.02333        27.73922         0.00589
C         14.82297        27.05017         0.26523
C         16.02303        29.18193        -0.07944
C         14.78785        29.91245         0.01791
C         16.02156        32.03019        -0.28221
C         14.78207        31.32783        -0.14644
C         16.01403        33.47809        -0.36244
C         14.77326        34.18690        -0.31488
C         15.99158        36.33132        -0.52663
C         14.76872        35.62428        -0.36969
C         15.98325        37.77100        -0.59605
C         14.75607        38.46754        -0.48081
C         18.51062         3.46833         0.04285
C         17.22969         4.09714         0.18346
C         18.45962         6.22118         0.90932
C         17.18398         5.48017         0.55131
C         18.52157         7.66255         0.45864
C         17.25836         8.38609         0.05052
C         18.48426        10.58460         0.27444
C         17.26475         9.77090         0.71346
C         18.52650        11.95890         0.96708
C         17.24749        12.71842         0.69324
C         18.52002        14.88235         0.75366
C         17.25916        14.13689         0.72497
C         18.52178        16.31579         0.81897
C         17.30078        17.06591         1.07345
C         18.54984        19.18698         0.62151
C         17.37032        18.49150         1.03048
C         18.49883        20.53528         0.19763
C         17.19444        21.22071         0.07410
C         18.45815        23.42143        -0.27220
C         17.17658        22.71860        -0.14694
C         18.46278        24.84231        -0.29891
C         17.22864        25.58495        -0.12960
C         18.46729        27.71582        -0.43052
C         17.23985        27.00488        -0.18363
C         18.46774        29.14194        -0.51355
C         17.22719        29.87996        -0.31386
C         18.55086        32.01216        -0.29263
C         17.22125        31.30366        -0.34999
C         18.48345        33.49814        -0.58171
C         17.23260        34.19050        -0.51165
C         18.44411        36.32924        -0.80257
C         17.22211        35.62150        -0.61862
C         18.42522        37.76246        -0.89269
C         17.20203        38.45751        -0.77937
C         19.70835         4.12411         0.28403
C         20.94785         6.21843         0.70535
C         19.73739         5.48862         0.61178
C         20.94434         7.59770         0.75131
C         19.72796         8.34631         0.53662
C         20.93057        10.54183         0.34752
C         19.77940         9.80614         0.41262
C         20.90341        11.98411         0.29509
C         19.77336        12.71360         0.56029
C         20.95880        14.88764         0.57580
C         19.74840        14.17291         0.62119
C         20.96034        16.27691         0.62035
C         19.76997        17.00114         0.71199
C         20.93067        19.13078        -0.07896
C         19.87774        18.50878         0.80242
C         20.85109        20.43265        -0.45249
C         19.66287        21.22730        -0.22822
C         20.85450        23.39112        -0.64400
C         19.65095        22.66434        -0.42149
C         20.86261        24.77035        -0.70656
C         19.67966        25.53649        -0.53437
C         20.85327        27.70656        -0.92362
C         19.68005        26.98681        -0.62260
C         20.83219        29.09081        -1.06477
C         19.65860        29.82799        -0.85451
C         20.90771        32.06676        -1.04465
C         19.59714        31.31673        -1.16442
C         20.91425        33.40501        -0.88418
C         19.67808        34.18032        -0.78662
C         20.86539        36.36174        -1.11813
C         19.68389        35.62453        -0.90734
C         20.83989        37.76097        -1.20913
C         19.64794        38.45937        -1.09494
O         13.40354        16.75213        -1.11294
O          9.81298        26.30662         1.71467
O          9.26733        20.75099         1.67163
O         15.26206        18.93248         2.21459
O          2.40728        26.25544         1.97240
O         15.11283        16.33696         2.29786
O         14.68727         4.35558         1.33332
O         10.90808        11.29394         1.62755
O          5.04197        30.49781        -1.20009
O         16.91173        21.76335        -1.25747
O         19.01905        31.87526         1.08413
H         18.35624        32.29553         1.67095
O          3.37383        14.68444        -2.09945
H          4.13780        15.07808        -2.57054
O         10.63028        31.82059        -1.61361
H         11.32519        32.21533        -2.18073
O         18.40426         6.34354         2.39294
H         17.85055         7.13133         2.59855
O         20.29724        18.78513         2.19643
H         20.38388        19.75839         2.28284
O          7.36904        39.77510        -0.32831
H          7.35592        39.51042        -1.27069
O          9.95429        17.09700        -2.12521
H         10.03258        16.17852        -2.46073
O         10.74041         7.62352         1.93071
H          9.88444         7.16525         2.06671
O          0.90545        12.14422         1.60805
H          1.59429        11.60987         2.05943
O          8.67162        27.76687        -1.45104
H          8.00686        28.39554        -1.80521
O          1.46043         7.80760         1.91930
H          1.27232         8.74796         2.13198
O          4.16325         7.54120         1.19652
H          3.34653         7.43173         1.74417
O         18.61799        11.77234         2.41579
H         18.61195        12.66140         2.83000
O         18.31896        10.87663        -1.14566
H         19.12469        11.35059        -1.44533
O         13.66844        12.02261        -1.57111
H         13.84632        12.95249        -1.83240
O         10.97289        24.95754        -1.50184
H         11.66794        24.37088        -1.86860
O         11.07128        20.96827        -1.51187
H         11.74363        20.40680        -1.95338
O         10.28925        31.59752         2.01971
H          9.62628        31.14874         2.58443
O         17.34598         9.46894         2.12914
H         17.62894        10.29193         2.60033
O          7.51703         8.55581        -2.40751
H          6.59642         8.74009        -2.72351
O         13.63441        27.84443         2.16130
H         13.54989        26.92217         2.48537
O          4.69390         8.50907        -2.35217
H          4.23942         7.67857        -2.64723
O         14.71300        21.58717         2.54633
H         14.72083        20.69050         2.95592
O         17.24540         8.46247        -1.39609
H         17.68244         9.30862        -1.66332
O          3.27358         6.32508        -2.18560
H          3.22373         5.40340        -2.51871
O          4.78218        27.08724        -1.42146
H          5.56537        26.60202        -1.76111
O          8.68577         2.09643        -0.63774
H          8.71100         2.14413         0.33969
O          2.51700        14.42589         1.45634
H          1.79740        13.89441         1.87485
O          5.84792        29.29023         2.15121
H          6.50354        28.72279         2.60964
O         19.14981        31.42744        -2.54420
H         19.80716        30.97686        -3.11374
H          1.42498         2.22633         0.24172
H         -0.66246         3.41332         0.91397
H         -0.72783         5.89086         1.00153
H         -0.96917         7.80086         0.15995
H         -1.00168        10.23620        -0.09576
H         -0.90386        12.12343        -0.82978
H         -0.87997        14.51717        -1.18900
H         -1.00124        16.50940        -0.81645
H         -1.00043        18.92729        -0.65106
H         -1.02406        20.80333        -0.31849
H         -1.03702        23.21019        -0.01743
H         -1.04686        25.11480         0.35534
H         -1.05528        27.52067         0.46114
H         -1.05546        29.47033         0.39189
H         -1.03033        31.89173         0.22614
H         -1.01607        33.77962         0.01163
H         -0.97036        36.22903        -0.06469
H          0.28717        38.36066        -0.07391
H          3.79484         2.30623        -0.45710
H          2.45069        39.58412        -0.00215
H          6.24984         2.36028        -0.85252
H          4.91530        39.57031         0.17608
H          8.75972         3.33322        -2.27355
H          7.39289        38.93278         1.54217
H         11.16301         2.43710        -0.97510
H          9.83968        39.57876         0.09174
H         13.49303         2.52866        -1.21917
H         12.30552        39.57579        -0.22329
H         16.28522         2.51804        -0.98305
H         14.75581        39.56678        -0.52727
H         18.53357         2.41487        -0.27233
H         17.19869        39.55608        -0.84020
H         20.65870         3.58516         0.15243
H         21.90381         5.67358         0.68848
H         21.89857         8.13394         0.84272
H         21.91676        10.05689         0.32992
H         21.85521        12.48830         0.07518
H         21.91749        14.35664         0.51828
H         21.92318        16.80437         0.60325
H         21.83706        18.55927        -0.32460
H         21.68734        20.87785        -1.01119
H         21.80460        22.85258        -0.76165
H         21.82122        25.27602        -0.88430
H         21.80355        27.18037        -1.08291
H         21.76470        29.60063        -1.34423
H         21.86315        31.53661        -1.17148
H         21.87687        33.93552        -0.85393
H         21.83099        35.84766        -1.21338
H         21.78040        38.30633        -1.37102
H         19.63609        39.55650        -1.16445
