         236
 CSIRO Nanostructure Databank - Neutral Graphene Oxide Data Set
C        -10.96495         0.77235        -1.28069
C         -9.67485         1.52877        -1.10652
C         -8.64348         0.76611        -0.30027
C         -7.62947         1.59698         0.45859
C         -6.33570         0.83622         0.79440
C         -5.02001         1.49241         0.70727
C         -3.86225         0.79020         0.96157
C         -2.57638         1.57934         1.16803
C         -1.30537         0.76130         0.99458
C         -0.00603         1.49475         0.78610
C          1.29947         0.80281         1.00945
C          2.57217         1.50420         0.66761
C          3.71041         0.69479         0.14872
C          4.88467         1.39687        -0.27436
C          6.03510         0.67552        -0.63761
C          7.29827         1.33979        -0.88690
C          8.54501         0.61204        -0.78000
C          9.83958         1.34691        -1.04930
C         11.02587         0.68877        -0.39423
C         -9.83620         2.96287        -0.67083
C         -8.67938         3.69804        -0.39054
C         -7.47736         2.96321        -0.16178
C         -6.20248         3.63732        -0.16936
C         -4.92784         2.83155        -0.02436
C         -3.77546         3.67047         0.42492
C         -2.52572         2.90218         0.41978
C         -1.24610         3.64016         0.38019
C          0.04733         2.95663         0.59433
C          1.20322         3.64288         0.30385
C          2.58894         3.03783         0.51794
C          3.65887         3.54079        -0.43883
C          4.82227         2.83365        -0.57376
C          5.99563         3.38561        -1.38854
C          7.30627         2.72872        -1.02068
C          8.53640         3.48065        -0.90311
C          9.73916         2.82118        -0.77963
C         -8.66880         5.14876        -0.32609
C         -7.52839         5.86874        -0.03411
C         -6.23105         5.15113         0.03471
C         -5.08880         5.83275         0.71473
C         -3.83928         5.02815         1.05998
C         -2.52645         5.83922         0.91073
C         -1.24914         5.10337         0.63298
C         -0.03498         5.80331         0.18518
C          1.12743         5.05806        -0.00941
C          2.27492         5.73103        -0.64493
C          3.51218         4.93177        -0.97945
C          4.78022         5.68898        -1.28929
C          6.06076         4.92364        -1.37915
C          7.30947         5.63246        -0.97405
C          8.47049         4.92522        -0.78891
C         -7.45202         7.31021        -0.09331
C         -6.26146         8.00456         0.02553
C         -5.05235         7.33019         0.56953
C         -3.73507         8.00725         0.47610
C         -2.53666         7.28988         0.57107
C         -1.28635         7.94484         0.30664
C         -0.06897         7.22445         0.11151
C          1.16345         7.91437        -0.16235
C          2.29748         7.20599        -0.55658
C          3.54363         7.94722        -0.81407
C          4.81503         7.18385        -1.09003
C          6.11043         7.80775        -0.74038
C          7.26527         7.05227        -0.71889
C         -6.15847         9.42324        -0.19896
C         -4.96581        10.08531        -0.09299
C         -3.71719         9.40310         0.16765
C         -2.48777        10.07745         0.10120
C         -1.26542         9.37452         0.16492
C         -0.00729        10.05270         0.08392
C          1.19369         9.36302        -0.03997
C          2.47425        10.02273        -0.02497
C          3.63699         9.33833        -0.31136
C          4.94726         9.92973        -0.22853
C          6.10099         9.21198        -0.41448
C        -11.04422        -0.55084        -1.10791
C         -9.93425        -1.37058        -0.51105
C         -8.66709        -0.59133        -0.22147
C         -7.52021        -1.38200         0.23295
C         -6.32946        -0.68892         0.79122
C         -5.02956        -1.40238         0.80576
C         -3.83421        -0.66928         1.05429
C         -2.60071        -1.38015         1.16933
C         -1.37060        -0.60935         1.68243
C          0.05355        -1.32276         1.68333
C          1.15199        -0.67174         0.79118
C          2.33743        -1.43570         0.26916
C          3.64026        -0.71635         0.10567
C          4.79615        -1.49064        -0.19551
C          5.97871        -0.78067        -0.67502
C          7.35874        -1.55747        -0.63421
C          8.57967        -0.74843        -0.53061
C          9.80868        -1.42455        -0.16528
C         11.01073        -0.61021        -0.03658
C         -9.63629        -2.65295        -1.22218
C         -8.50913        -3.38843        -0.82446
C         -7.45532        -2.72754        -0.03993
C         -6.30477        -3.54047         0.44837
C         -5.01866        -2.81508         0.71321
C         -3.79973        -3.51123         0.83097
C         -2.60078        -2.78057         1.05518
C         -1.28037        -3.46589         0.93059
C          0.01456        -2.77685         1.22789
C          1.36507        -3.51557         1.33149
C          2.32476        -2.97787         0.22244
C          3.68715        -3.63243         0.35561
C          4.86048        -2.90747         0.00430
C          6.12250        -3.61549         0.00634
C          7.34676        -2.92546        -0.15639
C          8.60886        -3.57735         0.07918
C          9.81349        -2.77981         0.09128
C         -8.37022        -4.72351        -1.22043
C         -7.47272        -5.71467        -0.53569
C         -6.31419        -5.03286         0.24977
C         -5.01526        -5.75628         0.39938
C         -3.77577        -5.03086         0.91815
C         -2.51400        -5.64046         0.30169
C         -1.24516        -4.92741         0.59194
C         -0.04384        -5.73584         0.97838
C          1.26561        -5.04551         1.23956
C          2.52019        -5.78039         0.90931
C          3.74267        -5.00820         0.58790
C          4.96459        -5.73315         0.49097
C          6.15726        -5.02574         0.25654
C          7.43108        -5.73598         0.25361
C          8.64040        -4.95938         0.22847
C         -7.05558        -6.82049        -1.49882
C         -6.43531        -7.91488        -0.99429
C         -4.97364        -7.11213         0.44564
C         -3.72071        -7.93815         0.54630
C         -2.49927        -7.13731         0.11174
C         -1.21570        -7.88962         0.12607
C         -0.00706        -7.20165         0.67256
C          1.28838        -7.90852         0.56762
C          2.47951        -7.22771         0.57162
C          3.76365        -7.88827         0.49348
C          4.94621        -7.18569         0.54700
C          6.24937        -7.96687         0.55291
C          7.46537        -7.11247         0.33583
C         -5.86011        -9.09829        -1.61531
C         -4.74073        -9.72507        -1.14181
C         -3.70478        -9.25756        -0.22530
C         -2.51921        -9.96122        -0.22200
C         -1.24247        -9.37842         0.18572
C         -0.07160       -10.06650         0.29218
C          1.26100        -9.44027         0.67001
C          2.45366        -9.91006        -0.10838
C          3.79510        -9.42653         0.36314
C          4.96388        -9.79493        -0.52987
C          6.11400        -9.11410        -0.44567
O          0.53239        -1.16628         3.02736
H          1.26564        -1.81278         3.19151
O         -1.82916        -7.46948        -1.14182
O          2.49975         5.11761        -2.01259
O         -0.73584         0.79576        -0.31911
O         -0.49136        -2.78276        -0.13332
O         -5.94370         4.59695        -1.28707
O         -1.61899         5.48386         2.01170
O          6.42687        -8.55814         1.87006
H          5.65979        -9.17226         2.01837
O         -5.43212         6.67434         1.84109
O          1.86075        -3.41025        -1.06164
H          1.16333        -2.77490        -1.35597
O         -8.29530         1.87708         1.73336
H         -8.04799         1.13942         2.34273
O         -4.60652         2.38372        -1.38527
H         -4.65571         3.17403        -1.96960
O         -6.77248        -4.46133         1.52317
O         10.06915         1.23269        -2.50443
H          9.24819         1.53098        -2.95232
O          2.03424        -5.64685         2.32451
O         -1.78587        -5.01559        -0.78171
O         -3.64352        -5.39816         2.28807
O          3.02780         3.58899         1.79909
H          2.70379         2.96714         2.49427
O         -0.32363        -6.71098         2.03968
O          6.59993        -1.35495        -1.85924
O          5.75691         2.95221        -2.75331
H          5.31293         3.70666        -3.21435
O         -6.15409        -7.86478         0.38806
O        -10.44282        -1.79004         0.80796
H         -9.72852        -2.29354         1.25538
O          5.40690         5.42397        -2.59265
O          2.18567         1.18539         2.08856
O         -1.85431         3.12160        -0.87487
O          1.26200        -0.95409        -0.62362
O         -6.53404         0.07235         2.03336
O          4.09889         7.84702        -2.18339
O         -2.60853         2.04759         2.54784
H         -2.51466         1.24275         3.12213
O          1.45245        -9.73353         2.09095
H          0.79162        -9.21274         2.59705
O          2.01156        -3.20334         2.58153
H          2.28240        -4.07295         2.98378
O         -9.07818         1.61548        -2.45808
H         -9.68917         2.13719        -3.02046
O         -8.35960        -6.30000         0.45980
H         -8.20785        -5.80304         1.29785
O         -1.74543        -0.36253         3.06167
H         -0.97974        -0.62343         3.63359
O         -3.51315        -8.19240         1.96208
H         -3.57484        -7.29371         2.39879
O          4.08772        -9.96062         1.68556
H          3.23909        -9.92788         2.19741
O         -3.99835         4.68151         2.46419
H         -3.10873         4.42026         2.80281
H         11.91055        -1.08437         0.38401
H         11.94673         1.28228        -0.28942
H         10.66768         3.40022        -0.66027
H          9.39079         5.46068        -0.51025
H          8.21328         7.54158        -0.44564
H          7.07208         9.71139        -0.27986
H          5.01364        10.99404         0.04222
H          2.51752        11.08771         0.24957
H         -0.00061        11.15278         0.10640
H         -2.47585        11.16479        -0.06555
H         -4.92806        11.16907        -0.27671
H         -7.07041         9.97644        -0.46780
H         -8.36722         7.86135        -0.35938
H         -9.61917         5.67869        -0.48996
H        -10.79230         3.47941        -0.84858
H        -11.82895         1.33057        -1.67672
H        -11.99109        -1.07836        -1.30165
H        -10.41320        -3.14142        -1.82999
H         -9.16218        -5.14800        -1.85830
H         -7.29852        -6.73230        -2.56663
H         -6.37281        -9.53996        -2.48400
H         -4.45852       -10.65308        -1.66911
H         -2.48632       -10.95450        -0.69984
H         -0.09080       -11.16709         0.26176
H          2.31287       -10.06429        -1.19115
H          4.86016       -10.65058        -1.21430
H          6.98482        -9.39742        -1.05635
H          8.44102        -7.62019         0.38401
H          9.60617        -5.47783         0.31996
H         10.76141        -3.27836         0.34358
