         651
 CSIRO Nanostructure Databank - Neutral Graphene Oxide Data Set
C          5.84618        31.71487        -1.69985
C          5.86167        33.07078        -1.74586
C          8.42572        27.40931        -1.59012
C          8.38556        28.83041        -1.60164
C          7.15740        29.50573        -1.67086
C          8.40253        31.72931        -1.55068
C          7.08005        30.94597        -1.46404
C          8.33782        33.16546        -1.86314
C          7.09452        33.83898        -1.79038
C          8.26194        35.96640        -2.08833
C          7.08172        35.24414        -1.89948
C          8.19105        37.48633        -2.16585
C         10.96565        23.16856        -1.22083
C         10.90180        24.59130        -1.29332
C          9.68110        25.28527        -1.41746
C         10.87810        27.44373        -1.47182
C          9.64189        26.70110        -1.49551
C         10.86410        28.86384        -1.61297
C          9.63952        29.56626        -1.62848
C         10.82950        31.68117        -2.07543
C          9.65239        30.98789        -1.79523
C         10.79235        33.13429        -2.52043
C          9.51683        33.86996        -2.16443
C         10.74175        36.01605        -2.55886
C          9.48659        35.27259        -2.27359
C         10.70149        37.54838        -2.25718
C          9.47439        38.09923        -1.65325
C         10.81736        39.63933        -0.30072
C          9.53166        39.11423        -0.73774
C         11.02156        40.90455         0.24124
C         13.55480        18.97698        -0.81608
C         13.47815        20.39264        -0.81752
C         12.28852        21.06558        -1.06730
C         13.39235        23.27521        -0.95695
C         12.18493        22.50291        -1.04575
C         13.37025        24.67132        -1.08146
C         12.12470        25.34571        -1.22764
C         13.34064        27.50696        -1.24846
C         12.10604        26.76136        -1.30866
C         13.31809        28.89228        -1.58970
C         12.10822        29.57317        -1.76426
C         13.29519        31.68979        -2.22652
C         12.09172        30.99214        -2.05664
C         13.28081        33.14547        -2.45511
C         12.03205        33.89062        -2.02366
C         13.26339        36.03171        -2.48927
C         12.06341        35.34544        -2.44301
C         13.22197        37.55730        -2.53994
C         11.99410        38.03135        -1.77575
C         13.77402        39.88261        -0.61502
C         11.94369        38.79628        -0.64876
C         13.47098        41.20258        -0.41783
C         12.25690        41.67249         0.24416
C         13.36013        43.88184         0.61302
C         12.23856        42.99229         0.70203
C         13.39514        45.10107         1.26414
C         15.78324        14.87800         0.72345
C         15.79700        16.25702         0.43711
C         14.69345        16.91403        -0.16610
C         16.06116        19.00262        -0.35331
C         14.72254        18.28701        -0.47200
C         15.99656        20.49072        -0.40192
C         14.66907        21.17993        -0.30725
C         15.95261        23.41275        -0.67070
C         14.67663        22.58255        -0.87415
C         15.75427        24.83702        -0.43999
C         14.57019        25.44509        -0.84041
C         15.80914        27.61982        -0.79302
C         14.55256        26.87434        -0.92990
C         15.84336        28.95593        -1.33324
C         14.61085        29.52035        -1.89149
C         15.84462        31.76401        -2.14075
C         14.58631        31.00632        -2.29360
C         15.84500        33.16044        -2.30738
C         14.58157        33.89294        -2.53673
C         15.77611        36.06045        -2.47888
C         14.56693        35.37645        -2.42562
C         15.73956        37.52593        -2.96995
C         14.58403        38.18812        -2.22920
C         15.89260        40.26076        -1.76131
C         14.74770        39.37771        -1.56419
C         15.79782        41.57077        -1.33059
C         14.51237        42.14574        -0.86904
C         15.79941        44.22687        -0.07684
C         14.50595        43.52513        -0.26231
C         15.79507        45.43144         0.67396
C         14.56936        45.93620         1.25390
C         15.75302        47.97490         1.96504
C         14.56271        47.19413         1.85381
C         15.75031        49.25842         2.54940
C         18.17597        10.87201         2.40881
C         18.17867        12.22283         2.01432
C         16.97772        12.87797         1.56169
C         18.23547        14.98506         1.11685
C         16.94632        14.22028         1.20124
C         18.09519        16.46456         1.29763
C         16.92505        17.05929         0.89471
C         17.93312        19.34585         1.37120
C         16.69709        18.55473         0.97467
C         18.18313        20.63849         0.96648
C         17.21469        21.23752        -0.00574
C         18.13098        23.56793         0.61122
C         17.19954        22.73349        -0.17941
C         17.82367        24.85931         0.88756
C         16.65039        25.66940         0.43948
C         18.15367        27.93048         0.12339
C         16.93103        27.04573        -0.19482
C         18.25386        29.12887        -0.83484
C         17.05102        29.68763        -1.39104
C         18.28093        31.77885        -1.91110
C         17.04976        31.06399        -1.84153
C         18.27858        33.18824        -2.18042
C         17.05798        33.89450        -2.28915
C         18.24905        36.04250        -2.36958
C         17.03943        35.34613        -2.39669
C         18.23022        37.53519        -2.14332
C         17.12034        38.29201        -2.91048
C         18.28416        40.39359        -2.19495
C         17.10512        39.69657        -2.30477
C         18.24941        41.84126        -1.89272
C         16.94676        42.48244        -1.45861
C         18.24246        44.35611        -0.34746
C         16.98817        43.72181        -0.62983
C         18.24532        45.57676         0.39697
C         17.01125        46.14674         0.85145
C         18.21014        48.11164         1.74971
C         16.99001        47.41229         1.50802
C         18.19198        49.36524         2.38688
C         16.95367        49.98344         2.74598
C         18.15226        52.04566         3.48699
C         16.95996        51.27976         3.34219
C         18.19576        53.20067         4.23642
C         20.65045         6.72736         3.43589
C         20.56249         8.13079         3.44809
C         19.37742         8.82445         3.14004
C         20.54040        11.00436         3.03189
C         19.34650        10.23051         2.90071
C         20.57337        12.34537         2.61136
C         19.39828        12.97067         2.09512
C         20.50489        15.14881         2.14355
C         19.39128        14.38555         1.84881
C         20.40784        16.60230         2.41449
C         19.12913        17.23904         1.96586
C         20.71923        19.66930         2.35282
C         18.84834        18.56964         2.18934
C         20.66209        20.90052         1.69751
C         19.29860        21.56916         1.58590
C         20.62066        23.61878         0.84152
C         19.41898        22.95574         0.96706
C         20.75379        25.05368         0.55162
C         19.67086        25.96514         0.83900
C         20.76705        27.87454        -0.02180
C         19.49872        27.18604         0.21363
C         20.71246        29.36438        -0.27098
C         19.46481        29.81106        -1.04321
C         20.79265        31.69409        -2.11438
C         19.49697        31.07070        -1.68716
C         20.72232        33.18405        -2.28687
C         19.52869        33.89575        -2.31528
C         20.70230        36.07445        -2.51463
C         19.50515        35.34853        -2.41922
C         20.73176        37.52383        -2.43784
C         19.55570        38.23002        -2.39245
C         20.82990        40.34069        -1.96152
C         19.59251        39.73113        -2.58394
C         20.83360        41.78649        -1.70722
C         19.52665        42.56892        -1.60516
C         20.71969        44.36572        -0.36526
C         19.49377        43.78860        -0.77906
C         20.72306        45.59899         0.36337
C         19.47814        46.23520         0.71497
C         20.68063        48.15811         1.71986
C         19.45734        47.48548         1.39006
C         20.71112        49.45362         2.23901
C         19.46403        50.02362         2.85906
C         20.66424        52.23940         3.09077
C         19.37176        51.54203         2.73111
C         20.64213        53.44986         3.73470
C         19.49020        53.86450         4.61811
C         20.52723        56.15818         4.92525
C         19.41925        55.36143         4.83654
C         20.43140        57.45404         5.59983
C         23.17915         3.98058         3.78862
C         21.95326         4.63865         3.64937
C         23.11383         6.79897         3.73411
C         21.88714         6.05121         3.62576
C         23.09061         8.21264         3.73129
C         21.78853         8.89017         3.77183
C         23.06054        11.06251         3.27373
C         21.77446        10.40603         3.55776
C         23.03165        12.40612         2.80147
C         21.82513        13.05897         2.59231
C         23.03455        15.25061         2.38897
C         21.82467        14.44654         2.00985
C         23.01777        16.60712         2.57456
C         21.72907        17.37353         2.67302
C         23.04666        19.41009         1.89689
C         21.83096        18.82849         2.34074
C         23.06620        20.67645         1.24829
C         21.86080        21.42472         1.16980
C         23.04224        23.40028         0.07605
C         21.95747        22.92972         1.03060
C         23.06412        24.72786        -0.33951
C         21.91217        25.56432        -0.03561
C         23.18317        27.59302        -0.89604
C         22.03465        27.02379        -0.16689
C         23.03929        29.00539        -1.46927
C         22.01083        29.90841        -0.79318
C         23.27220        31.94466        -1.58799
C         21.95796        31.36388        -1.08737
C         23.26771        33.24245        -2.29152
C         21.97678        33.85125        -2.64519
C         23.23295        36.12787        -2.83508
C         21.93948        35.37805        -2.85349
C         23.21179        37.53035        -2.36894
C         22.02500        38.20911        -2.29189
C         23.26998        40.28879        -1.61998
C         22.01316        39.62390        -1.90874
C         23.25096        41.64874        -1.20591
C         22.03324        42.37694        -1.10719
C         23.20269        44.28161        -0.13360
C         21.97854        43.67904        -0.57138
C         23.18517        45.52238         0.55366
C         21.95470        46.14552         0.81873
C         23.22172        48.13316         1.88237
C         21.92252        47.38501         1.61421
C         23.14734        49.57923         2.05123
C         21.93541        50.21302         2.30858
C         23.11652        52.32021         2.83907
C         21.92073        51.63583         2.66845
C         23.15003        53.71453         3.28819
C         21.82758        54.31505         3.73362
C         23.11788        56.33435         4.30250
C         21.89907        55.49807         4.67548
C         23.11092        57.71428         4.27682
C         21.29238        58.49931         5.28983
C         22.93882        60.30312         5.72649
C         21.72497        59.63556         6.01575
C         24.37095         4.69409         3.88890
C         25.56133         6.87042         3.93961
C         24.36681         6.11345         3.85159
C         25.54887         8.27112         3.84005
C         24.29093         8.96396         3.71130
C         25.53510        11.09229         3.30505
C         24.27890        10.37453         3.44366
C         25.56076        12.42243         2.89097
C         24.31048        12.99806         2.25456
C         25.58247        15.28207         2.32411
C         24.30258        14.52375         2.17935
C         25.49008        16.72345         2.60032
C         24.27204        17.34484         2.70409
C         25.71315        19.10761         0.86314
C         24.17393        18.84309         2.72729
C         25.58239        20.49327         0.55493
C         24.18671        21.03815         0.23391
C         25.51008        23.23515        -0.56969
C         24.18737        22.52167        -0.19534
C         25.50248        24.70157        -0.69267
C         24.29611        25.38299        -0.77651
C         25.49550        27.35783        -1.85331
C         24.28051        26.81193        -1.14665
C         25.44844        28.81881        -2.35217
C         24.49209        29.61936        -1.43766
C         25.73444        31.74352        -2.27586
C         24.52108        31.11924        -1.69480
C         25.73063        33.18012        -2.42431
C         24.47616        33.88675        -2.51013
C         25.76756        36.06941        -2.42894
C         24.51465        35.34938        -2.78109
C         25.76131        37.42491        -2.15168
C         24.46931        38.09663        -1.74876
C         25.74256        40.28578        -1.65607
C         24.51902        39.60313        -1.74223
C         25.74399        41.68273        -1.28056
C         24.48174        42.31955        -0.92156
C         25.69256        44.36736        -0.27570
C         24.43529        43.61186        -0.40414
C         25.71073        45.66488         0.44282
C         24.46083        46.04790         1.19379
C         25.68700        48.19852         1.66647
C         24.47282        47.52749         1.43411
C         25.66169        49.52412         2.13553
C         24.42409        50.30138         2.03039
C         25.65363        52.28351         3.09924
C         24.41730        51.74103         2.46843
C         25.67740        53.68706         3.51694
C         24.44376        54.33980         3.69312
C         25.58693        56.49279         4.11080
C         24.38535        55.70366         4.08747
C         25.51521        57.88301         4.41778
C         24.26846        58.51884         4.52023
C         24.06702        59.84951         5.03703
C         26.76011         9.02482         3.85621
C         27.99848        11.12782         3.55693
C         26.77635        10.40083         3.60801
C         28.03058        12.48981         3.24136
C         26.79055        13.17618         2.90684
C         28.04442        15.31300         2.74379
C         26.82182        14.55041         2.65938
C         28.03372        16.68997         2.64111
C         26.76910        17.51556         2.66207
C         28.02493        19.37142         1.52343
C         26.83282        18.62237         1.59553
C         27.98864        20.62770         0.85836
C         26.77491        21.24733         0.47944
C         28.01514        23.39884        -0.16380
C         26.83549        22.48267        -0.43234
C         28.06176        24.71237        -0.58914
C         26.78331        25.51562        -0.62200
C         28.12783        27.31249        -1.85305
C         26.80915        26.65019        -1.63174
C         28.12868        28.67450        -2.42283
C         26.83840        29.48765        -2.49505
C         28.18154        31.67299        -2.42950
C         26.88333        30.97172        -2.42194
C         28.21588        33.16259        -2.65182
C         26.93353        33.91145        -2.66691
C         28.23362        36.07379        -2.73471
C         26.97111        35.31269        -2.57108
C         28.34050        37.46084        -2.18406
C         27.01985        38.14192        -1.85125
C         28.24941        40.29526        -1.76573
C         27.03416        39.61741        -1.77587
C         28.22433        41.81219        -1.73215
C         26.94651        42.34983        -1.15059
C         28.24450        44.35031        -0.16069
C         26.96603        43.61514        -0.40510
C         28.18078        45.73973         0.33609
C         27.00936        46.28754         0.82654
C         28.17707        48.30987         1.73502
C         26.98704        47.57348         1.46640
C         28.16804        49.60741         2.28503
C         26.83650        49.99742         2.93812
C         28.51376        52.58959         3.23784
C         26.68346        51.42410         3.36056
C         28.18420        53.93350         3.13429
C         26.90504        54.46289         3.58078
C         26.81460        55.84220         3.83243
C         29.25626        13.21136         3.19007
C         30.52392        15.29560         2.83146
C         29.30025        14.58630         2.93077
C         30.56376        16.68285         2.61042
C         29.30008        17.49836         2.78508
C         30.49718        19.36930         1.69201
C         29.28817        18.77989         1.96857
C         30.55480        20.63797         0.94484
C         29.26697        21.28877         0.54136
C         30.51680        23.52401         0.39076
C         29.22108        22.76999         0.39226
C         30.53943        24.78211        -0.39461
C         29.31654        25.39617        -0.83466
C         30.64377        27.16037        -2.11834
C         29.33200        26.66967        -1.53048
C         30.66484        28.55327        -2.87153
C         29.45520        29.39043        -2.39860
C         30.67787        31.52049        -3.16526
C         29.44952        30.88036        -2.52671
C         30.76292        33.07779        -3.14594
C         29.47448        33.84362        -3.11711
C         30.82779        36.05807        -2.90282
C         29.50281        35.34145        -3.00557
C         30.80335        37.56118        -2.77975
C         29.54404        38.26893        -2.44145
C         30.72373        40.43742        -2.09233
C         29.53430        39.65219        -2.07924
C         30.77986        41.73516        -1.30809
C         29.48198        42.49853        -1.21348
C         30.69824        44.68640        -0.91347
C         29.48672        43.77167        -0.72276
C         30.67939        45.99793        -0.13164
C         29.41613        46.53020         0.44427
C         30.68634        48.47797         1.34869
C         29.49737        47.56382         1.57301
C         30.57978        49.81377         1.74169
C         29.37510        50.41525         2.24718
C         29.45976        51.81236         2.51541
C         31.76457        17.37468         2.42342
C         32.96629        19.45896         1.91979
C         31.77132        18.75150         2.05374
C         33.04139        20.80209         1.41334
C         31.80064        21.43879         0.98727
C         33.04591        23.41042         0.28352
C         31.77695        22.74659         0.57761
C         32.98868        24.87590         0.05573
C         31.77516        25.34590        -0.66223
C         33.30441        26.85929        -1.86370
C         31.91510        26.37154        -1.69686
C         33.24088        28.89196        -2.60485
C         31.93849        29.40684        -2.68322
C         32.86470        31.54487        -1.93932
C         31.84867        30.81149        -2.55503
C         32.77340        32.98594        -1.79415
C         31.94563        33.78785        -2.52737
C         33.28449        36.10751        -2.02935
C         32.00698        35.29392        -2.35262
C         33.35280        37.59459        -2.28259
C         32.10034        38.31909        -2.63333
C         33.33269        40.54462        -2.19496
C         32.02347        39.83356        -2.46310
C         33.31234        41.96835        -1.73099
C         32.00140        42.63079        -1.51579
C         33.18088        44.62098        -0.54019
C         32.01010        43.95105        -0.82562
C         33.15206        45.93160         0.04821
C         31.96254        46.59554         0.33821
C         31.90006        47.89038         0.92242
C         34.24933        21.49313         1.38535
C         35.58131        23.62613         0.71536
C         34.36552        22.77215         0.68741
C         35.58080        24.91398         0.24211
C         34.27775        25.61250        -0.00618
C         35.56138        27.56600        -0.93941
C         34.31872        26.74328        -0.96117
C         35.57117        28.96302        -1.45161
C         34.29326        29.56999        -1.96805
C         35.93168        31.96858        -1.66331
C         34.00987        30.84857        -1.50818
C         35.89776        33.32806        -1.88900
C         34.73220        34.11169        -1.56102
C         35.86366        36.15063        -2.03852
C         34.61098        35.42627        -1.95963
C         35.79007        37.57777        -1.70638
C         34.52282        38.27871        -2.03982
C         35.85171        40.46388        -1.58664
C         34.60946        39.76178        -2.06825
C         35.79286        41.81994        -1.26820
C         34.49467        42.49507        -0.92360
C         34.52812        44.03254        -0.94067
C         36.80864        25.64984        -0.00765
C         38.05991        27.67710        -0.72574
C         36.84726        26.89731        -0.60042
C         38.11499        28.95512        -1.25947
C         36.89679        29.50802        -1.98927
C         38.32645        31.76918        -2.28037
C         36.96483        31.05174        -2.15654
C         38.38369        33.27224        -2.36426
C         37.08392        34.05454        -2.37293
C         38.35762        36.18231        -1.95377
C         37.08482        35.50017        -2.08356
C         38.36345        37.56185        -1.81217
C         37.12260        38.32225        -1.60619
C         37.08308        39.78269        -1.64981
C         39.33696        29.72446        -1.25882
C         40.67189        31.81118        -1.48407
C         39.47736        31.02869        -1.71821
C         40.73413        33.17896        -1.59926
C         39.59708        34.00154        -1.94985
C         39.57317        35.38163        -1.86833
O         32.31402        35.74434        -0.98890
O         27.46932        28.91786        -3.71198
O         32.70136        42.77335        -2.79822
O         30.99076        36.85980        -4.09442
O         25.03566        14.96622         0.97186
O         24.52047        51.42301         1.03760
O         17.43036        42.62236        -2.83667
O         17.88812        21.90805        -1.16675
O         22.57689        47.29427         2.94220
O         28.72385        35.93750        -4.10257
O         22.34822        54.60074         2.40763
O         14.69732        29.94560        -3.29730
O         15.55624        22.89669        -1.98248
O         24.22341        31.88324        -0.45394
O          7.81012        31.39624        -0.25862
O         34.99753        31.47495        -0.74600
O         20.33569        42.62583        -2.83422
O         37.59465        31.30319        -3.44671
O         20.86969        16.96403         3.77226
O         33.41614        25.72744         1.18556
O         27.66885        43.43383         0.88300
O         29.72951        30.20837        -1.23773
O         31.20632        26.10402        -2.95807
O         27.84776        37.51933        -0.79346
O         29.71522        46.91863         2.79346
O         18.68745        25.54416         1.74701
O         33.49254        27.59510        -3.04352
O         30.05610        20.56378        -0.45805
O         28.36532        32.60929        -1.29029
O         18.67463        14.86493        -0.36628
O         30.13963        33.53102        -4.37799
O         21.91119        58.36829         4.03054
O         29.67645        23.50770         1.59602
O         24.64307        22.61679        -1.59279
O         21.87168        34.46321        -3.97812
O         19.61153        19.27954         3.12193
O         35.45434        28.76254        -0.02347
O         29.88972        47.03536        -0.85367
O         36.33985        37.86173        -0.38412
O         13.83953        33.49052        -3.75856
O         13.09829        38.91706         0.13660
O         25.59319        45.64466        -1.01973
O         34.22817        40.38301        -3.34234
O         14.09574        43.30981        -1.65879
O         33.67461        33.52071        -0.87506
O         21.64741         9.81950         4.89645
O         24.76471        19.60503         3.46808
O         27.73038        51.86255         4.16725
O         33.84395        22.70580        -0.71724
O         26.03104        26.42881        -2.85189
O         24.00706        35.86631        -4.06061
O         37.76455        33.72439        -3.61691
O         21.72028        27.69449         1.11065
O         10.60165        37.02588        -3.60126
O         32.12885        39.22065        -3.78329
O         24.55714        45.41148         2.50488
H         23.85652        45.82384         3.06746
O         26.80044        49.22029         4.19131
H         27.35095        48.41447         4.07314
O         19.74785        39.99195        -4.03111
H         19.83687        40.97136        -4.12530
O         14.45640        21.35804         1.14236
H         14.63100        20.48492         1.57343
O         11.97358        33.86029        -0.57261
H         12.68840        34.42674        -0.21426
O         30.46737        28.27808        -4.26481
H         30.93008        27.43185        -4.46819
O         15.89307        25.98317         1.65811
H         16.47079        26.56788         2.19791
O          7.97834        37.88065        -3.52968
H          8.79774        37.64648        -4.02701
O         26.77218        26.20465         0.67087
H         26.99237        25.55939         1.37589
O         23.71458        20.29456        -0.94404
H         24.04213        20.78313        -1.73687
O         25.00532        29.41139        -0.10847
H         24.78790        30.21102         0.42379
O         19.82118        53.34082         5.95711
H         20.69165        53.74001         6.20770
O         22.22727        54.90830         5.98488
H         22.30505        55.63916         6.63475
O         17.91603        37.71974        -0.72202
H         18.56485        37.20165        -0.20022
O         29.37302        17.95374         4.19692
H         29.40787        17.15097         4.76041
O         27.14230        21.92462        -1.74428
H         26.29308        21.85085        -2.23727
O         18.81986        21.85351         2.92843
H         18.89133        21.01669         3.44638
O         12.93639        38.00810        -3.88564
H         13.69059        37.72074        -4.46007
O         20.44227        29.92854         1.06400
H         21.09420        29.50343         1.66881
O         26.74637        18.18165         3.94919
H         27.64726        18.54200         4.13640
O         34.22167        42.14349         0.47007
H         34.35383        41.17978         0.59118
O         21.25400        31.12392        -3.35916
H         20.64682        31.40352        -4.07571
O         19.15408        51.81229         1.32142
H         19.25143        52.77577         1.17105
O         16.94669        18.53820        -1.40529
H         16.84506        19.13105        -2.17899
O         19.58107        49.74754         4.28845
H         19.74544        48.78804         4.40357
O         24.32580        37.73250        -0.31628
H         25.17920        37.93478         0.12655
O         24.92651        28.81427        -3.69610
H         25.59927        28.34838        -4.24757
O         36.94615        28.92420        -3.31423
H         37.49448        29.52033        -3.87885
O         22.50171        28.83529        -2.80057
H         23.24087        28.66386        -3.43724
O         22.45336        23.34350         2.35310
H         21.72174        23.23117         2.99744
O         15.68886        18.82531         1.99537
H         16.02322        18.49625         2.85636
O         17.56087        38.41231        -4.27762
H         18.31718        39.05341        -4.35142
O         30.66055        31.17062        -4.56805
H         30.60786        30.19010        -4.66538
O         24.31590        12.53322         0.85863
H         24.93800        13.13483         0.38093
O         28.21354        42.22633        -3.15103
H         27.50804        41.72300        -3.61051
O         31.01956        41.25872         0.07945
H         30.16574        40.94722         0.45139
O         15.38248        37.36207        -4.36310
H         16.13711        37.69958        -4.90722
O         24.79904        18.23640         0.36578
H         24.20306        18.72820        -0.25797
O         21.97960        14.24655         0.55534
H         22.73028        13.61436         0.42207
O         30.60981        45.04550        -2.32469
H         30.15418        45.91964        -2.36932
O         18.72159        13.46834        -0.70115
H         17.88820        13.33101        -1.21375
O         17.91804        28.50831         1.44626
H         18.67643        29.12462         1.60812
O         34.84411        44.50303        -2.25144
H         34.13902        44.17619        -2.85889
O         10.88320        33.13126        -3.96710
H         10.13084        32.62163        -4.33142
O         21.59286        32.13009         0.08194
H         22.33883        32.06509         0.71672
H          4.89890        31.16466        -1.80096
H          4.91694        33.62345        -1.85737
H          7.47732        26.85172        -1.60323
H          6.23103        28.93652        -1.84032
H          6.12565        35.78263        -1.82098
H          7.31740        37.85211        -1.57081
H         10.03663        22.58668        -1.31379
H          8.73687        24.72114        -1.44019
H          8.60334        39.56956        -0.35953
H         10.11990        41.47692         0.51682
H         12.62730        18.40190        -0.97086
H         11.38964        20.48353        -1.32354
H         11.33409        43.36542         1.20681
H         12.52724        45.42963         1.85532
H         14.86139        14.29941         0.55961
H         13.77152        16.34190        -0.35469
H         13.62541        47.59043         2.27137
H         14.79561        49.70302         2.86791
H         17.24718        10.28867         2.32114
H         16.04514        12.29281         1.53420
H         16.01675        51.68047         3.74600
H         17.28202        53.54172         4.75026
H         19.74274         6.13290         3.25146
H         18.46095         8.24370         2.95429
H         18.44715        55.77435         5.15071
H         19.69371        57.56003         6.41048
H         23.20147         2.88195         3.81284
H         21.02518         4.05596         3.56044
H         23.07143        61.26950         6.24104
H         21.12864        59.99471         6.86735
H         25.32702         4.16122         3.99181
H         26.52232         6.34597         4.04965
H         26.44247        58.44718         4.59550
H         24.95551        60.49940         5.07799
H         27.71135         8.49583         4.01866
H         28.94041        10.60040         3.77021
H         28.86304        54.62132         2.60686
H         27.73472        56.44485         3.80781
H         30.19653        12.66893         3.37121
H         31.46914        14.73255         2.87229
H         31.47842        50.45111         1.69238
H         30.33286        52.33809         2.09529
H         32.72114        16.83298         2.48258
H         33.90729        18.95961         2.19694
H         34.10977        46.39910         0.32367
H         32.83359        48.47181         1.00475
H         35.13819        21.06045         1.86837
H         36.53851        23.14234         0.96749
H         36.72714        42.33645        -0.99813
H         35.32838        44.39363        -0.24734
H         37.75501        25.16344         0.27817
H         38.98580        27.23599        -0.32100
H         39.31506        38.11424        -1.81838
H         38.02000        40.34746        -1.52912
H         40.21410        29.25810        -0.78072
H         41.56494        31.27166        -1.13391
H         41.67690        33.68730        -1.34724
H         40.50295        35.90942        -1.60377
