         429
 CSIRO Nanostructure Databank - Neutral Graphene Oxide Data Set
C          1.68980         3.88205        -3.38949
C          0.42479         4.49478        -3.31249
C          1.32351         6.26545        -1.76585
C          0.23214         5.65188        -2.59757
C          1.27037         7.78728        -1.78572
C          0.00860         8.47551        -1.52661
C          1.17560        10.54595        -0.90009
C         -0.01460         9.80701        -1.25661
C          1.07305        11.95563        -0.56385
C         -0.09011        12.70482        -0.64883
C          1.01814        14.86061        -0.17730
C         -0.11048        14.11938        -0.51862
C          1.03651        16.28327         0.04167
C         -0.16044        17.03349         0.01447
C          1.05430        19.13005         0.32110
C         -0.15565        18.40647         0.17391
C          1.03765        20.56397         0.54948
C         -0.11824        21.32344         0.59720
C          1.06563        23.46344         0.80094
C         -0.09873        22.74881         0.65866
C          1.23087        24.89904         0.31299
C         -0.02533        25.73507         0.30318
C          1.18281        27.85648         0.68656
C         -0.01036        27.09044         0.47183
C          1.19800        29.26025         0.85348
C         -0.00784        30.02911         0.84788
C          1.22893        32.12899         1.02591
C          0.00904        31.40119         0.91667
C          1.24293        33.59297         0.99039
C          0.02058        34.33381         0.80407
C          1.21743        36.44616         0.55998
C          0.02275        35.69849         0.56497
C          1.25539        37.81442         0.20176
C          4.11178         3.94828        -3.00416
C          2.83287         4.51606        -2.82155
C          3.85269         6.42677        -1.62459
C          2.70172         5.75106        -2.11636
C          3.74683         7.72606        -1.04919
C          2.56302         8.54335        -1.33135
C          3.45082        10.47130         0.14866
C          2.39757         9.87855        -0.77055
C          3.62882        11.96058        -0.14946
C          2.34355        12.69167        -0.35959
C          3.53600        14.82898         0.41836
C          2.24314        14.09892         0.12124
C          3.50908        16.28114         0.25564
C          2.29092        16.98554         0.20390
C          3.53727        19.15741         0.27982
C          2.28981        18.43085         0.28076
C          3.58764        20.53087         0.53691
C          2.31558        21.21362         0.87909
C          3.62229        23.44329         1.10564
C          2.30098        22.72571         1.09323
C          3.63594        24.92890         1.18286
C          2.31511        25.67942         1.13279
C          3.69741        27.82824         1.10113
C          2.48292        27.10888         0.56332
C          3.68932        29.25054         1.14928
C          2.44330        29.97148         1.01959
C          3.70583        32.10199         1.34088
C          2.43205        31.38963         1.11603
C          3.72425        33.62065         1.26880
C          2.44362        34.29889         1.02453
C          3.73747        36.40625         0.54665
C          2.46884        35.80040         1.09106
C          3.71358        37.78027         0.16872
C          2.45768        38.47981         0.06711
C          6.54764         3.99777        -2.70603
C          5.27291         4.57721        -2.50329
C          6.33439         6.47334        -1.36153
C          5.15355         5.81725        -1.78771
C          6.24031         7.67714        -0.50348
C          4.86045         8.29753        -0.28458
C          6.07360        10.49937         0.41991
C          4.79209         9.72121         0.22266
C          6.06958        11.98024         0.46536
C          4.84123        12.69907         0.32815
C          6.02380        14.85689         0.86844
C          4.81420        14.08191         0.41393
C          6.09008        16.22712         0.22051
C          4.78736        16.95309        -0.02476
C          6.10570        19.16699         0.12965
C          4.78362        18.44749        -0.07961
C          6.05645        20.59170         0.50245
C          4.83260        21.25412         0.56727
C          6.11808        23.45334         0.80648
C          4.81560        22.76652         0.45793
C          6.12267        24.90273         0.93715
C          4.90997        25.66310         1.00478
C          6.15013        27.75762         1.52773
C          4.88824        27.06727         1.19127
C          6.18843        29.26754         1.42805
C          4.92417        29.98546         1.20064
C          6.20868        32.10750         1.00529
C          4.97296        31.37951         1.14363
C          6.18368        33.54526         0.81002
C          4.98504        34.28374         0.88139
C          6.16866        36.34140         0.16636
C          4.94809        35.67690         0.52847
C          6.14978        37.75079        -0.13247
C          4.91206        38.43820        -0.14723
C          8.99038         3.99911        -2.36615
C          7.71920         4.65230        -2.28863
C          8.81058         6.69345        -1.33495
C          7.59588         5.93596        -1.66334
C          8.71939         7.92754        -0.52879
C          7.45688         8.50160        -0.27458
C          8.56923        10.54354         0.47642
C          7.37942         9.83502         0.17933
C          8.54307        11.98036         0.70765
C          7.29865        12.68731         0.61939
C          8.53334        14.82367         0.77691
C          7.32120        14.10769         0.70610
C          8.54451        16.27691         0.71634
C          7.34588        16.99236         0.44581
C          8.54369        19.11723         0.63404
C          7.34368        18.39693         0.39565
C          8.50720        20.55579         0.72106
C          7.31115        21.27717         0.69630
C          8.58244        23.42293         0.76907
C          7.30185        22.73141         0.84154
C          8.58725        24.88139         0.71080
C          7.36374        25.57405         0.97010
C          8.68343        27.77461         1.12056
C          7.41861        26.98936         1.36647
C          8.62964        29.25156         0.99882
C          7.45851        29.96344         1.11690
C          8.65322        32.08996         0.58059
C          7.43837        31.40298         0.92000
C          8.59158        33.47826         0.27654
C          7.39952        34.21393         0.41983
C          8.60125        36.31471        -0.22199
C          7.38883        35.62613         0.11766
C          8.58711        37.73859        -0.44780
C          7.35418        38.42806        -0.40993
C         11.36384         3.84587        -1.72446
C         10.15633         4.56283        -1.84379
C         11.27653         6.51298        -0.64712
C         10.14769         5.98318        -1.42866
C         11.18407         7.84084        -0.06434
C          9.90070         8.55132        -0.05444
C         10.95703        10.46201         1.19104
C          9.79904         9.84088         0.50876
C         10.92996        11.94909         1.39748
C          9.73253        12.69290         0.94263
C         11.01129        14.82963         1.09897
C          9.76511        14.11503         0.94940
C         11.02665        16.25968         0.98719
C          9.77893        16.98278         0.82246
C         11.03107        19.12529         0.75790
C          9.77506        18.40387         0.77346
C         11.03973        20.52872         0.68386
C          9.78702        21.26782         1.08524
C         10.95904        23.31637         0.01568
C          9.75883        22.71783         0.69575
C         10.98132        24.84410         0.02199
C          9.76011        25.57455         0.40678
C         11.10386        27.77842         0.32292
C          9.78626        27.04751         0.42197
C         11.19163        29.20385         0.75458
C          9.91902        29.97229         0.93529
C         11.12776        32.01160         0.21437
C          9.91557        31.39974         0.57328
C         11.08365        33.38298        -0.32422
C          9.77684        34.13857        -0.29560
C         11.03309        36.27546        -0.65718
C          9.82118        35.61125        -0.37327
C         11.02833        37.71379        -0.79990
C          9.79836        38.40808        -0.72400
C         13.72213         3.71184        -1.06247
C         12.51308         4.42495        -1.13885
C         13.61845         6.29937         0.07500
C         12.44474         5.76042        -0.56524
C         13.52131         7.58945         0.83933
C         12.29947         8.40143         0.52363
C         13.54637        10.47671         1.28614
C         12.26965         9.73100         1.16332
C         13.52334        11.87603         1.89217
C         12.21568        12.68227         1.67126
C         13.44725        14.84688         1.41972
C         12.23711        14.13954         1.34667
C         13.48840        16.26077         1.24139
C         12.25815        16.96555         1.03219
C         13.48060        19.11270         0.74920
C         12.26993        18.40547         0.82996
C         13.49204        20.50994         0.48327
C         12.25774        21.23072         0.48101
C         13.49594        23.33895         0.27757
C         12.28160        22.65667         0.35262
C         13.54337        24.83196         0.53778
C         12.30199        25.57136         0.08928
C         13.56807        27.70879         0.23078
C         12.35015        27.02835         0.28940
C         13.59195        29.15556         0.19561
C         12.43733        29.90296         0.37199
C         13.57899        32.00930        -0.22044
C         12.39312        31.32838         0.19042
C         13.52407        33.42188        -0.48661
C         12.33981        34.13543        -0.47159
C         13.48343        36.28339        -0.90063
C         12.29663        35.57108        -0.71542
C         13.48307        37.71420        -1.08661
C         12.23951        38.40315        -1.01963
C         16.11048         3.60473        -0.49312
C         14.88445         4.28478        -0.49475
C         15.99334         6.18783         0.81811
C         14.80558         5.61086         0.08291
C         15.98800         7.70765         0.83073
C         14.81025         8.39158         0.83029
C         16.02162        10.56208         1.18261
C         14.75050         9.83145         1.11231
C         15.97475        12.02592         1.32979
C         14.76944        12.66071         1.54716
C         15.98525        14.89555         1.79055
C         14.69220        14.12161         1.77276
C         15.97410        16.32796         1.42614
C         14.74908        16.96641         1.25196
C         15.99387        19.02624         0.51126
C         14.76417        18.47452         1.20832
C         15.98566        20.47201         0.14235
C         14.71779        21.22688         0.28047
C         16.02448        23.39952         0.16045
C         14.72401        22.61489         0.18901
C         15.84993        24.79056        -0.44869
C         14.75584        25.54439        -0.00385
C         15.94400        27.66113        -0.51606
C         14.76605        26.95655        -0.06263
C         15.97479        29.04462        -0.59432
C         14.91409        29.86350         0.08093
C         15.98345        31.90629        -0.84462
C         14.80478        31.28428        -0.41879
C         16.06322        33.40147        -0.65082
C         14.75150        34.12128        -1.00928
C         16.01753        36.25402        -1.25615
C         14.80511        35.60469        -0.61038
C         15.92882        37.67647        -1.75597
C         14.68539        38.39496        -1.31753
C         18.57086         3.62338        -0.40331
C         17.32136         4.27056        -0.14345
C         18.51612         6.32286         0.47265
C         17.30262         5.59263         0.35599
C         18.52880         7.70884         0.82868
C         17.25448         8.37462         1.31238
C         18.49677        10.57916         0.96333
C         17.21052         9.87340         1.11335
C         18.51319        12.08679         1.13206
C         17.22577        12.78561         1.38451
C         18.48735        14.90170         1.83134
C         17.23619        14.13415         1.62248
C         18.47580        16.34578         1.52619
C         17.24239        17.01871         1.29413
C         18.48276        19.08125         0.76017
C         17.28335        18.37705         0.86161
C         18.56838        20.44068         0.07917
C         17.26095        21.22080         0.07451
C         18.57433        23.23617        -0.27117
C         17.26932        22.56621        -0.16957
C         18.72745        24.46631        -0.91833
C         16.86824        25.51048        -1.11782
C         18.37220        27.51775        -1.18340
C         17.06625        26.88970        -1.00262
C         18.39117        28.93900        -1.30322
C         17.07099        29.68652        -1.40142
C         18.37271        31.82756        -1.47901
C         17.17577        31.17768        -1.16033
C         18.37055        33.27755        -1.78712
C         17.15202        34.06871        -1.45243
C         18.41158        36.20713        -1.89168
C         17.17666        35.55524        -1.46094
C         18.44316        37.62200        -1.93246
C         17.23197        38.43725        -1.51424
C         19.75276         4.29763        -0.23469
C         20.96949         6.38298         0.26790
C         19.75264         5.66445         0.16716
C         20.96593         7.71492         0.61419
C         19.74688         8.39929         0.89186
C         20.92103        10.53920         1.38312
C         19.76494         9.84081         1.13390
C         20.92881        11.95363         1.59535
C         19.79118        12.71094         1.53203
C         21.01280        14.95867         1.55684
C         19.80760        14.16558         1.84138
C         20.95036        16.30970         1.46282
C         19.69936        17.03920         1.44210
C         20.87191        19.23167         1.31801
C         19.70290        18.44751         1.15682
C         20.84933        20.61412         1.12442
C         19.73702        21.26881         0.59423
C         20.85674        23.54650         0.50422
C         19.74115        22.67615         0.31995
C         20.83222        24.87813         0.10835
C         19.74771        25.39828        -0.65171
C         20.81491        27.55493        -1.16623
C         19.62042        26.80817        -1.04750
C         20.81538        28.92047        -1.38909
C         19.60270        29.64769        -1.44331
C         20.75734        31.82139        -1.95013
C         19.60162        31.10365        -1.64204
C         20.77812        33.23299        -2.11404
C         19.62870        33.99959        -2.04344
C         20.75914        36.16304        -2.54747
C         19.59416        35.45591        -2.17212
C         20.77066        37.55147        -2.61380
C         19.62131        38.28284        -2.28887
O          5.45668         7.39636         0.70409
O          8.39652        27.22967         2.44029
O         17.77562        24.78767        -1.89141
O         10.23880        33.48732        -1.53978
O         10.20249        27.64258        -0.84968
O          2.65891        14.30670         1.50420
O         19.14634        14.53800         3.10284
O          5.54526        16.30140        -1.12158
O         18.53396        11.48137        -0.21043
O         17.29656        33.55350        -2.80870
O         15.27571        14.58638         3.04332
O          6.13591        28.56766         2.73315
O         11.69375        25.26549        -1.20826
O         11.41370         9.73716         2.38627
O          5.51346        18.97850        -1.21898
O         15.88028        19.38640        -0.89422
O          3.74779        32.91883         2.56550
O         10.76271        29.55888         2.10580
O         11.27230        12.38047         2.76040
O          3.26765        12.42264        -1.48910
O          2.26019        21.80725         2.22850
O          9.70088         6.88842        -2.50009
O          5.34902         9.85215         1.56715
O          2.12168         8.42021        -2.74647
O          3.81270        24.08267         2.39961
O         13.63506        11.65586         3.32486
H         12.71189        11.56892         3.66570
O         16.40720        33.57926         0.75568
H         15.93506        32.89276         1.27590
O         10.73599        22.91475        -1.38078
H         11.17832        23.59837        -1.93877
O         14.63314        34.12893        -2.45341
H         14.82697        33.22837        -2.79050
O          1.82660        25.82469         2.47467
H          2.25738        25.12554         3.02040
O         13.35409         7.18248         2.25655
H         13.05732         7.97394         2.75975
O         15.39013        30.04326         1.48461
H         15.30153        29.17455         1.93376
O         13.57520        24.96315         1.99077
H         14.45513        24.61906         2.27560
O         17.24965         8.16493         2.76870
H         16.94964         7.23201         2.91458
O          1.05317         5.90667        -0.36264
H          1.07546         4.92846        -0.29854
O          9.83283        21.25512         2.56593
H          9.02337        21.70511         2.89101
O          1.66209        24.68301        -1.05461
H          1.98750        25.54396        -1.41433
O          4.61255        23.02293        -0.97421
H          5.27524        22.50060        -1.47503
O         16.63662        29.56424        -2.80817
H         17.33985        29.95836        -3.36728
O         14.94743        35.75658         0.82390
H         15.72391        35.21334         1.10659
O          5.85511        15.13443         2.30092
H          5.73869        14.27762         2.76362
O          2.48406        36.12041         2.54664
H          1.80453        35.55769         2.97614
O          2.77095        27.01915        -0.88340
H          2.71237        27.92684        -1.25007
O         15.84150         5.81276         2.23747
H         14.94076         6.13084         2.50765
O          2.86490        10.40915         1.47683
H          3.60909        10.27941         2.11286
O         15.80431        37.58243        -3.21590
H         15.14445        36.88494        -3.41958
O         18.85916        20.13740        -1.32950
H         18.04641        19.72103        -1.69586
O         14.93787        18.91350         2.60205
H         14.26787        18.45192         3.15018
O         16.24525        23.74923         1.59286
H         16.41998        22.91356         2.07849
O         17.32940        38.74450        -0.11980
H         18.21927        39.11144         0.05690
H          1.81775         2.94327        -3.94500
H         -0.42389         4.03825        -3.84261
H         -0.77164         6.09689        -2.54639
H         -0.92848         7.90185        -1.55338
H         -0.98785        10.30478        -1.14686
H         -1.04877        12.21169        -0.86043
H         -1.07273        14.62611        -0.67652
H         -1.12266        16.51849        -0.10807
H         -1.11538        18.93905         0.18283
H         -1.09565        20.84704         0.43935
H         -1.04757        23.27089         0.46980
H         -0.98903        25.24335         0.10427
H         -0.97505        27.61892         0.44367
H         -0.97627        29.51821         0.76894
H         -0.94997        31.93406         0.88722
H         -0.94099        33.80592         0.78554
H         -0.92514        36.20577         0.32935
H          0.31035        38.33825        -0.00784
H          4.20897         3.00587        -3.56340
H          2.47220        39.54232        -0.21534
H          6.61929         3.01918        -3.20255
H          4.89351        39.50657        -0.40995
H          9.02098         2.96843        -2.74946
H          7.33251        39.50949        -0.60982
H         11.41285         2.80929        -2.08931
H          9.78674        39.49731        -0.87669
H         13.77628         2.69692        -1.48331
H         12.22341        39.49608        -1.14229
H         16.16355         2.58419        -0.90041
H         14.65918        39.49006        -1.43141
H         18.56468         2.58179        -0.75518
H         17.21034        39.39618        -2.10932
H         20.71357         3.80314        -0.43802
H         21.91582         5.86979         0.04458
H         21.91861         8.25902         0.65541
H         21.87727        10.01048         1.49296
H         21.88318        12.42249         1.87359
H         21.97260        14.44376         1.40854
H         21.87859        16.86318         1.26553
H         21.79101        18.77283         1.70489
H         21.74251        21.19466         1.39634
H         21.75559        23.16875         1.01099
H         21.68336        25.52439         0.36582
H         21.77876        27.03163        -1.09825
H         21.77769        29.43910        -1.49176
H         21.71366        31.29291        -2.06253
H         21.75270        33.70485        -2.30133
H         21.67633        35.61298        -2.79769
H         21.68742        38.07731        -2.91393
H         19.64018        39.38220        -2.32758
