         280
 CSIRO Nanostructure Databank - Neutral Graphene Oxide Data Set
C         30.42270        31.81852        -1.12793
C         30.36022        33.03080        -0.77352
C         30.37949        36.26384        -0.24315
C         30.39561        37.47290         0.02415
C         30.36925        40.75135         0.56172
C         30.49390        41.97618         0.75615
C         32.82122        28.89380        -1.38207
C         31.74809        29.54923        -1.45689
C         32.79596        31.63319        -0.95025
C         31.47687        30.90241        -1.20676
C         32.79277        33.13931        -1.06631
C         31.48251        33.96702        -0.99703
C         32.82667        36.19856        -0.34863
C         31.50396        35.45176        -0.74837
C         32.71664        37.65528         0.18907
C         31.51000        38.36792         0.18221
C         32.79857        40.62915         0.41619
C         31.48001        39.83996         0.19630
C         32.81385        41.96940         1.17718
C         31.62626        42.86109         0.74837
C         31.83864        45.29858        -0.19200
C         31.70860        44.13785         0.29795
C         35.65361        27.37868        -1.53502
C         35.46104        28.80720        -1.75517
C         34.14783        29.49457        -1.61266
C         35.45767        31.63264        -1.02736
C         34.12942        30.92884        -1.10907
C         35.49776        33.14248        -0.84478
C         34.09370        33.82903        -0.80355
C         35.15199        35.51570         0.68743
C         34.02056        35.22885        -0.22303
C         35.14907        37.75541         0.80781
C         33.91369        38.43425         0.45558
C         35.26478        40.35463         1.16076
C         33.97459        39.80117         0.59162
C         35.34692        41.86628         1.21606
C         34.20771        42.62233         1.22500
C         35.59595        44.64456         2.14725
C         34.24911        43.93680         1.92636
C         35.63978        46.07277         1.65572
C         37.92161        27.39307        -0.79029
C         36.57804        26.87644        -0.86627
C         37.99440        28.76863        -0.99733
C         36.82680        29.57743        -1.57150
C         37.85637        31.48898        -0.15698
C         36.63316        30.94840        -0.93060
C         37.86700        32.98136         0.06104
C         36.46979        33.52228         0.28926
C         37.59074        35.88028         0.20971
C         36.40518        34.98990         0.57133
C         37.59700        37.30987         0.82267
C         36.39310        38.20695         0.53185
C         37.78851        40.19387         1.06124
C         36.47786        39.72940         0.41861
C         37.91894        41.69478         1.09385
C         36.71659        42.42380         1.68131
C         37.91178        44.53075         0.98116
C         36.79426        43.91477         1.52399
C         37.92088        45.98094         0.74052
C         36.70352        46.53994         1.22254
C         40.25673        24.75070         0.41109
C         39.24334        25.26463        -0.09975
C         40.49566        27.34742        -0.69026
C         39.12457        26.57523        -0.74053
C         40.42652        28.80098        -0.51300
C         39.24435        29.46863        -0.77675
C         40.43199        31.76501        -0.42567
C         39.17959        30.96446        -0.67646
C         40.34668        33.10620         0.21958
C         39.04000        33.71409         0.35155
C         39.80772        35.92389         1.27640
C         38.88872        35.17780         0.59592
C         40.02795        37.39483         1.18731
C         38.91538        37.98383         0.33794
C         40.08787        40.07507         0.07278
C         38.92149        39.47759         0.38610
C         40.33640        41.47814         0.52470
C         39.11521        42.31340         0.85153
C         40.16529        44.38861        -0.04591
C         39.12419        43.77073         0.62348
C         40.07586        45.79780        -0.46745
C         38.96479        46.61441         0.09037
C         40.22879        48.56325        -0.51074
C         39.13155        47.97638        -0.25471
C         42.83976        24.70052         0.83175
C         41.47913        25.21870         1.03898
C         42.94060        27.39013         0.03247
C         41.73943        26.57968        -0.33762
C         42.93343        28.79305         0.00261
C         41.60832        29.54715         0.09503
C         42.96555        31.63159         0.13395
C         41.76395        30.97492        -0.50668
C         42.90087        32.96155         0.79677
C         41.68758        33.82676         0.28890
C         42.84345        35.91563         1.12156
C         41.78707        35.05354         1.15835
C         42.74256        37.40405         1.58975
C         41.36629        38.13092         1.27098
C         42.65436        39.96699        -0.04491
C         41.38578        39.56121         0.67326
C         42.65715        41.40124        -0.50440
C         41.36683        42.16086        -0.34785
C         42.61615        44.33293        -0.91343
C         41.33589        43.63118        -0.57721
C         42.61776        45.68650        -1.13114
C         41.35536        46.49122        -1.00690
C         42.81297        48.37615        -0.73682
C         41.46449        47.98878        -0.78044
C         43.91391        25.29484         0.63384
C         45.36922        27.34766         0.12793
C         44.15555        26.66711         0.22359
C         45.37837        28.77051        -0.02120
C         44.17002        29.49547         0.00266
C         45.41512        31.68780         0.28218
C         44.19480        30.96834         0.09928
C         45.41653        33.11455         0.48319
C         44.18762        33.75260         0.67327
C         45.36900        35.96726         0.70800
C         44.18591        35.16852         1.22644
C         45.29410        37.42536         1.25969
C         43.96709        38.10671         0.95629
C         45.15339        39.91982        -0.39936
C         43.93392        39.27343         0.26513
C         45.18052        41.46930        -0.17152
C         43.90702        42.18240        -0.64491
C         45.10331        44.26167        -1.20383
C         43.86620        43.54065        -0.91637
C         45.10347        45.60776        -1.49671
C         43.86880        46.43078        -1.60190
C         43.88921        47.71717        -0.73931
C         47.79851        27.36060        -0.10041
C         46.69785        26.81138         0.03178
C         47.97278        28.79276        -0.37084
C         46.64458        29.52480        -0.22738
C         47.90214        31.74161        -0.20405
C         46.71633        30.92374         0.36531
C         47.95198        33.04222         0.61710
C         46.70399        33.84863         0.73340
C         47.76807        36.07666         1.66264
C         46.67808        35.20797         1.00534
C         47.78965        37.51401         1.13998
C         46.50646        38.15790         0.74040
C         47.75474        40.13625        -0.10064
C         46.47030        39.32801         0.06905
C         47.63140        41.22895        -1.17799
C         46.46084        42.11888        -0.73570
C         47.53636        43.94079        -2.20652
C         46.39975        43.51300        -1.24252
C         47.47231        45.46608        -2.15518
C         46.39361        46.04194        -1.96133
C         50.53276        28.95669        -0.23526
C         49.22432        29.53887        -0.15770
C         50.48708        31.73479        -0.17323
C         49.21267        30.92426        -0.10137
C         50.47527        32.77066         0.96376
C         49.12518        33.34241         1.23994
C         50.34664        36.03695         1.32829
C         49.16317        35.50636         1.69160
C         50.36967        37.34464         0.55473
C         49.06225        38.10763         0.63209
C         50.25606        40.09279        -0.40024
C         48.97614        39.24170        -0.38226
C         50.19377        41.36558        -1.05785
C         48.94361        42.00445        -1.31734
C         50.12527        43.91613        -1.98583
C         48.84205        43.32948        -1.79181
C         51.62331        29.59955        -0.09718
C         52.90513        31.88277         0.15483
C         51.85681        30.95833        -0.08369
C         52.84594        33.07960         0.52217
C         51.71522        34.04919         0.56400
C         52.73088        36.24839         1.32260
C         51.66936        35.20840         1.56757
C         52.68691        37.43869         1.01027
C         51.48308        38.35162         1.03752
C         52.54275        40.46202        -0.04634
C         51.43788        39.58611         0.18200
C         52.60156        41.60678        -0.53739
C         51.60749        42.07986        -1.54352
C         51.26374        43.53526        -1.64026
O         34.95528        36.59339         1.52864
O         39.75080        31.72839        -1.76958
O         31.39307        34.93215        -2.07263
O         32.18821        40.50341        -0.89228
O         42.48743        40.27827        -1.47035
O         48.62730        38.39743         1.99195
O         34.74345        29.29118        -2.92080
O         40.31258        46.04547        -1.89892
O         47.25023        29.28926        -1.53168
O         33.27104        44.31009         2.56317
O         33.57210        33.68105        -2.16619
O         40.42766        38.09005         2.39791
O         40.87987        42.66987        -1.61690
O         49.16470        34.24304         2.31832
O         39.91613        26.80708        -1.92719
O         33.48937        31.09163         0.21955
O         33.89366        36.20327        -1.33075
O         40.75280        35.27010         2.05653
O         46.90781        43.22693         0.10336
O         41.16685        40.77224         1.65115
O         45.18070        41.64736         1.25925
H         45.80669        42.38513         1.45646
O         50.61618        37.08239        -0.82448
H         51.37944        36.46561        -0.90044
O         45.25965        36.10987        -0.72219
H         45.08278        35.22855        -1.11510
O         42.03270        34.23394        -1.06463
H         41.68259        33.56729        -1.69438
O         36.13036        33.68009        -2.03270
H         35.44986        33.72851        -2.74321
O         42.11037        25.76761        -1.41117
H         41.31614        25.63982        -1.98416
O         47.42689        36.09589         3.07766
H         47.77364        36.93708         3.44789
O         47.62699        32.03050        -1.57848
H         48.38935        32.53374        -1.93927
O         44.35937        34.97467         2.66157
H         44.82300        35.77929         3.02028
O         48.80515        38.61431        -1.65828
H         48.50290        39.29875        -2.30635
O         35.94088        32.87433         1.49917
H         36.34309        33.32136         2.27536
O         41.32181        29.73902         1.50103
H         41.17415        28.86802         1.92403
O         47.97555        40.85056         1.13062
H         48.13735        40.17809         1.83759
O         45.43072        37.42553         2.70307
H         44.64534        37.87284         3.09919
O         35.30696        39.92095         2.53853
H         34.56694        40.35593         3.01477
O         50.93792        32.14197         2.13606
H         50.87397        32.79300         2.87238
O         37.66918        37.09156         2.24231
H         37.62170        37.98076         2.67926
O         45.03608        39.65737        -1.82035
H         44.08803        39.82331        -2.07510
O         37.27919        29.89254        -2.91044
H         36.48326        30.03401        -3.47282
O         36.50171        40.19240        -0.93795
H         35.74675        39.80195        -1.42582
O         51.71803        34.69711         2.88068
H         51.74633        35.44605         3.51105
O         50.44088        32.39251        -1.47393
H         50.46756        31.68808        -2.15774
O         51.50602        34.58817        -0.69887
H         51.50115        33.87197        -1.37648
O         42.87171        37.49868         3.02297
H         41.95981        37.42926         3.39565
O         41.27963        25.70272         2.31339
H         42.11959        25.69136         2.81426
O         37.41411        35.99795        -1.21457
H         37.16724        35.11483        -1.59596
O         42.11113        30.81449        -1.89702
H         41.27151        30.88208        -2.41572
O         43.69096        46.80061        -2.95909
H         44.55055        47.11382        -3.31191
O         37.69210        30.83819         1.14203
H         36.90773        31.26663         1.56864
O         42.66415        32.75744         2.22530
H         43.13271        33.47614         2.71635
O         47.19079        43.51390        -3.51377
H         47.95901        43.63430        -4.10879
O         39.28423        37.60639        -1.00387
H         38.53223        37.78629        -1.60768
O         36.76911        42.12491         3.11080
H         36.51314        42.94205         3.60594
O         51.23884        38.72224         2.38718
H         51.80035        39.49320         2.61092
O         51.95369        41.57793        -2.80517
H         51.42249        42.02200        -3.49602
O         32.55407        41.59617         2.55545
H         32.48092        42.43660         3.06683
O         47.38147        40.69322        -2.49113
H         46.49325        40.24144        -2.49469
O         37.84777        39.73029         2.43376
H         38.69422        40.04157         2.82107
O         46.98640        30.69270         1.77731
H         46.85970        31.53525         2.26413
O         35.76172        44.62723         3.57716
H         34.92400        44.96262         3.96958
