         280
 CSIRO Nanostructure Databank - Neutral Graphene Oxide Data Set
C         30.81054        31.45396        -1.18937
C         30.68407        32.69111        -1.14538
C         30.33283        35.87871        -1.09310
C         29.36731        36.66708        -0.93063
C         30.30485        40.38707        -1.34786
C         30.24737        41.54762        -0.90021
C         33.01233        29.02491         0.56662
C         32.02610        29.42725        -0.05695
C         32.99194        31.66924        -0.14307
C         32.06132        30.67313        -0.91810
C         32.75364        33.09825        -0.20856
C         31.58130        33.75647        -0.86477
C         32.83042        35.87576        -1.30798
C         31.51498        35.15259        -1.00951
C         32.81571        37.38467        -1.24853
C         31.67748        38.14319        -1.89390
C         32.62923        40.20115        -0.68253
C         31.36756        39.41156        -1.14560
C         32.57110        41.65596        -0.42569
C         31.35089        42.37366        -0.48611
C         32.54549        44.19363         0.30603
C         31.38472        43.69215         0.07050
C         35.72622        27.70237         1.65806
C         35.26752        29.15181         1.89491
C         34.34669        29.65773         0.77653
C         35.26170        32.01103         1.01979
C         33.95660        31.17870         0.95221
C         35.28880        33.41220         0.51515
C         33.99613        34.00407         0.03259
C         35.24834        35.98241        -0.61867
C         34.04910        35.31576        -0.61290
C         35.25383        37.48560        -0.55863
C         33.93138        38.09388        -0.95501
C         35.22899        40.26728        -0.75906
C         33.93251        39.59075        -1.19749
C         35.14706        41.77499        -0.55994
C         33.84845        42.20714         0.20109
C         35.07310        44.53706         0.40110
C         33.83050        43.74784         0.41589
C         35.24494        45.82540         1.10810
C         38.07449        27.86772         2.35091
C         36.83993        27.28729         2.08771
C         37.99850        29.30616         2.02402
C         36.62573        29.96926         1.86117
C         37.81450        31.94389         0.63597
C         36.59490        31.34327         1.26212
C         37.79214        33.23579         0.13703
C         36.56464        34.02547         0.07471
C         37.71502        35.87368        -1.19481
C         36.52131        35.29862        -0.44500
C         37.72054        37.42447        -1.33953
C         36.36268        38.15913        -1.37253
C         37.72777        40.35702        -0.92201
C         36.41974        39.63026        -0.95348
C         37.73035        41.79080        -0.41424
C         36.42136        42.31938         0.16842
C         37.77889        44.56421         0.35209
C         36.41285        43.85769         0.17235
C         37.72898        45.89399         1.17695
C         36.37566        46.29242         1.32225
C         40.46181        25.13335         2.68515
C         39.43453        25.79874         2.87959
C         40.55795        27.72529         1.89930
C         39.36450        27.29880         2.84512
C         40.51129        29.13179         1.37342
C         39.22834        29.93303         1.40601
C         40.18801        31.62623        -0.30147
C         38.94156        30.96090         0.29926
C         40.24199        33.10745        -0.48019
C         39.01204        33.92317        -0.28770
C         40.29905        35.89425        -1.01075
C         39.00995        35.22846        -0.70757
C         40.31243        37.38449        -1.21600
C         39.02139        38.18713        -1.26654
C         40.19334        40.30352        -0.59418
C         39.02712        39.63598        -0.89321
C         40.21188        41.69910        -0.11841
C         38.97987        42.35823         0.11882
C         40.20545        44.37937         1.07096
C         38.86501        43.63687         0.94683
C         40.22398        45.91522         1.00633
C         38.89115        46.53095         1.48610
C         40.18323        48.48608         2.15155
C         39.12123        47.81488         2.06409
C         42.80067        24.74458         1.67699
C         41.68508        25.47294         2.02283
C         42.95669        27.59772         1.17290
C         41.66484        26.93881         1.68385
C         42.71989        28.65159         0.07133
C         41.60290        29.60504         0.47525
C         42.76433        31.61970        -0.24535
C         41.48780        30.80645        -0.44932
C         42.74189        33.02670        -0.37526
C         41.55904        33.77629        -0.55983
C         42.78350        35.91628        -0.77471
C         41.58458        35.19776        -0.71548
C         42.82156        37.35034        -0.66377
C         41.58276        38.13258        -0.95217
C         42.63052        40.20493         0.17163
C         41.51817        39.59892        -0.67294
C         42.77210        41.69365        -0.22852
C         41.45092        42.34484         0.13537
C         42.71413        44.54578         0.30183
C         41.48930        43.70548         0.70104
C         42.73815        46.04542         0.86464
C         41.49481        46.43556         1.71930
C         42.79707        48.42464         2.27968
C         41.51195        48.03699         2.02364
C         43.73142        25.39703         1.01845
C         45.11993        27.19527        -0.28431
C         44.02836        26.61532         0.58191
C         45.24839        28.72907        -0.05921
C         44.00750        29.45792        -0.09875
C         45.26936        31.62037         0.11919
C         43.97098        30.86151        -0.09454
C         45.20017        32.91233        -0.71732
C         44.03912        33.80890        -0.25240
C         45.33330        35.86575        -0.68427
C         44.05292        35.13448        -1.03727
C         45.34146        37.38112        -0.67540
C         43.99398        38.01284        -0.34124
C         45.25139        40.15925         0.37524
C         43.95502        39.41704         0.15968
C         45.28415        41.65741         0.33556
C         44.01349        42.39639         0.32062
C         45.24948        44.48545         0.71226
C         44.01163        43.76847         0.50439
C         45.24616        45.76026         1.30031
C         44.04177        46.44252         1.60882
C         43.85358        47.68207         2.18024
C         47.53175        27.25199         0.16296
C         46.47795        26.63245         0.03667
C         47.77447        28.66433         0.55937
C         46.47470        29.38117         0.06954
C         47.71996        31.46796        -0.38347
C         46.53713        30.81548        -0.11784
C         47.77995        32.91116        -0.73243
C         46.51653        33.69269        -0.82205
C         47.79057        35.84289        -0.39605
C         46.51008        35.16885        -0.58333
C         47.82374        37.21870        -0.23813
C         46.50297        37.88091         0.18512
C         47.83109        40.14879         0.08944
C         46.55834        39.40439         0.27876
C         47.77119        41.64165        -0.06486
C         46.48249        42.32994         0.25450
C         47.85338        44.45214         0.60728
C         46.49816        43.84419         0.12492
C         47.59091        45.74729         1.11658
C         46.56840        46.31122         1.55196
C         50.16585        28.60916        -0.61483
C         49.04906        29.31672         0.05014
C         50.09835        31.41415        -1.25858
C         49.02863        30.76868        -0.36484
C         50.23469        32.90587        -0.91387
C         49.09020        33.60574        -0.62490
C         50.26865        35.83188        -0.75247
C         49.08615        35.06330        -0.19497
C         50.28814        37.29814        -0.44661
C         49.07956        37.94509        -0.24513
C         50.30001        40.10230         0.31654
C         49.09004        39.45865        -0.41101
C         50.43993        41.63140        -0.04928
C         49.08022        42.38515        -0.03890
C         50.37571        44.29200         0.62981
C         49.04376        43.83183         0.38856
C         51.22443        29.23069        -0.89292
C         52.53498        31.44800        -1.12632
C         51.50600        30.57733        -1.18568
C         52.61262        32.74308        -1.13546
C         51.53830        33.59017        -0.98918
C         52.69596        35.93786        -0.92332
C         51.53372        35.05670        -1.09607
C         52.63880        37.16857        -0.80310
C         51.55819        38.04883        -0.44164
C         52.67992        40.26831         0.15196
C         51.60568        39.36318        -0.07023
C         52.84498        41.47490         0.41698
C         51.63796        42.29655         0.82505
C         51.50349        43.76838         0.53890
O         39.89398        32.18654        -1.62913
O         37.72687        41.51796        -1.84965
O         41.87251        39.14601        -1.99820
O         38.39434        37.88154        -2.56004
O         35.17448        33.13343         1.95319
O         44.53174        39.57412         1.51859
O         36.62921        31.11866         2.73360
O         41.03603        43.77456         2.10155
O         32.98804        33.87190         1.04224
O         31.25685        37.84916        -2.99815
O         50.61925        35.53253        -2.13729
O         48.36750        42.16490        -1.31082
O         35.69849        44.50882        -0.92315
O         38.87813        30.21280         2.76999
O         31.84518        39.37673         0.22491
O         47.19793        33.28575        -2.06684
O         40.38115        36.48361        -2.36305
O         49.50393        30.36858         0.96613
O         41.62309        29.98060         1.87549
O         47.41796        39.76822         1.42849
O         34.64734        29.26703         3.13233
H         35.30008        29.15610         3.85270
O         41.51168        30.30334        -1.80618
H         41.17449        31.03327        -2.38010
O         46.46001        44.14222        -1.29695
H         47.15557        43.58804        -1.72924
O         33.84600        39.80111        -2.63162
H         34.57255        39.26830        -3.04596
O         42.91844        41.75045        -1.66805
H         42.92891        42.70351        -1.92082
O         49.29514        35.04730         1.25381
H         48.43475        34.88717         1.69603
O         50.05993        39.90191         1.70354
H         50.70105        40.43612         2.22893
O         35.07483        29.53757        -0.44274
H         34.44536        29.64163        -1.19648
O         45.61304        37.81305        -2.03607
H         44.99500        37.34099        -2.63690
O         38.38840        30.13717        -0.76551
H         38.45186        30.65921        -1.59817
O         35.53701        37.78528         0.83381
H         34.78296        37.48149         1.38264
O         38.22369        44.90090        -0.96290
H         37.43442        45.18025        -1.48231
O         42.34503        27.91689        -1.09676
H         42.14552        28.56783        -1.81106
O         44.05040        34.93928        -2.47292
H         44.26201        33.98759        -2.65830
O         46.25609        37.39497         1.52061
H         46.73758        37.98983         2.13889
O         42.71491        46.92603        -0.26872
H         43.46541        46.68840        -0.85522
O         43.58158        28.24719         2.28193
H         43.70280        27.59909         3.00649
O         42.10473        40.16266         1.51426
H         42.87696        40.12584         2.12905
O         49.16130        39.69676        -1.82967
H         49.84179        39.10716        -2.21870
O         49.63040        31.29439        -2.59281
H         50.10878        31.92577        -3.16902
O         44.80836        27.01426        -1.65673
H         44.47344        26.10478        -1.79477
O         41.55157        45.90276         3.02501
H         42.40012        46.16376         3.44147
O         33.27290        31.31485         2.19639
H         33.29338        32.26842         2.44401
O         33.88123        41.58619         1.51919
H         32.99022        41.66064         1.92470
O         42.58349        44.64622        -1.14050
H         41.77236        45.18736        -1.31405
O         40.32701        46.23430        -0.39535
H         40.34929        47.21006        -0.49583
O         47.74675        28.76767         1.98128
H         48.48259        29.35989         2.25854
O         33.02703        35.57565        -2.72803
H         32.33552        36.08728        -3.21682
O         44.85309        32.45897        -2.05177
H         45.70904        32.37121        -2.54499
O         45.34003        31.93684         1.54356
H         45.23023        31.09734         2.04116
O         38.45313        43.31327         2.28518
H         39.25217        43.00601         2.77040
O         51.42764        42.10375         2.20615
H         52.16365        42.51713         2.70363
O         35.91874        38.09729        -2.74746
H         36.71633        38.22372        -3.31446
O         37.56843        35.36698        -2.54752
H         38.26979        35.80710        -3.08378
O         39.62977        27.84530         4.12632
H         40.49066        27.50742         4.44730
O         50.91619        41.70901        -1.39201
H         50.14321        41.58331        -1.99125
O         44.18491        34.22649         1.11539
H         44.37304        33.43105         1.67021
O         35.04622        42.32483        -1.87498
H         35.88344        42.12109        -2.35375
O         36.46685        41.84336         1.52074
H         35.56952        41.87607         1.92859
O         32.71197        30.31020        -2.12876
H         32.13748        29.69290        -2.62889
