         576
 CSIRO Nanostructure Databank - Neutral Graphene Oxide Data Set
C          6.06329        19.10577        -1.30598
C          6.03591        20.48898        -1.10550
C          4.78512        21.19437        -0.93553
C          5.92989        23.33738        -0.55937
C          4.73043        22.54049        -0.71493
C          5.88699        24.71372        -0.38641
C          8.60454        14.82932        -1.62965
C          8.55326        16.20340        -1.59000
C          7.32100        16.97047        -1.57973
C          8.50825        19.15489        -1.67408
C          7.27357        18.35682        -1.48008
C          8.52390        20.64730        -1.43936
C          7.24323        21.28692        -1.03429
C          8.43176        23.43022        -0.69283
C          7.18917        22.62879        -0.70663
C          8.42089        24.75301        -0.01848
C          7.07459        25.49933         0.00912
C          8.38412        27.63384         0.10208
C          7.17398        26.95108        -0.09108
C          8.46776        29.05901        -0.01212
C         11.17494        10.44481        -1.71394
C         11.09034        11.89496        -1.62381
C          9.90527        12.57076        -1.51585
C         11.13218        14.76933        -1.38186
C          9.82301        14.04355        -1.15721
C         11.11198        16.24324        -1.25818
C          9.81574        16.97477        -1.37719
C         11.10215        19.21805        -1.44959
C          9.82832        18.44438        -1.69807
C         11.02057        20.62467        -0.97536
C          9.81675        21.29748        -1.08697
C         10.97108        23.43025        -0.33452
C          9.77754        22.74833        -0.85884
C         10.90433        24.79967        -0.05289
C          9.67358        25.52365         0.00284
C         10.85190        27.61738         0.57663
C          9.63362        26.90388         0.24905
C         10.78569        29.07958         0.99725
C          9.62412        29.79943         0.32874
C         10.84203        31.97324         0.73747
C          9.70878        31.17353         0.13771
C         10.92849        33.41498         0.26960
C         13.60037         6.20238        -1.06321
C         13.63802         7.61328        -1.34470
C         12.44515         8.30504        -1.58708
C         13.63548        10.43961        -1.30538
C         12.36152         9.73259        -1.61156
C         13.60536        11.91962        -1.27176
C         12.38843        12.65539        -1.80784
C         13.57924        14.83942        -1.15358
C         12.33030        14.11475        -1.40044
C         13.62435        16.20274        -1.06477
C         12.41123        16.97021        -1.41887
C         13.51064        19.08054        -0.52382
C         12.40651        18.46432        -1.32277
C         13.38993        20.48648        -0.01290
C         12.18804        21.28661        -0.40020
C         13.31118        23.30584         0.55312
C         12.15426        22.64694        -0.11392
C         13.41036        24.79004         0.43837
C         12.15008        25.55555         0.16730
C         13.25544        27.61833         1.21473
C         12.04883        26.95252         0.61383
C         13.29607        29.05340         0.76994
C         12.10638        29.79012         0.71094
C         13.36812        31.88756         0.22969
C         12.09614        31.17681         0.46892
C         13.40755        33.36949         0.15441
C         12.10448        34.09044         0.09365
C         13.44542        36.08018        -0.54530
C         12.21629        35.46179        -0.34685
C         13.52233        37.39716        -1.13838
C         16.02822         6.14575        -0.64070
C         14.72195         5.52655        -0.68427
C         16.09117         7.57155        -0.97679
C         14.93109         8.26796        -1.27569
C         16.18906        10.48273        -1.21834
C         14.94467         9.73534        -1.66218
C         16.20081        11.96474        -1.30580
C         14.89315        12.67358        -1.38045
C         16.06777        14.76690        -0.47073
C         14.80503        14.06359        -0.84225
C         16.07793        16.22855        -0.40914
C         14.89193        16.94121        -0.85277
C         15.97182        19.05307         0.14593
C         14.85896        18.44130        -0.61121
C         15.85096        20.45862         0.49748
C         14.66612        21.14480         0.39322
C         15.84598        23.31390         1.02960
C         14.58688        22.56020         0.80675
C         15.82513        24.72477         1.17902
C         14.59437        25.48970         1.00122
C         15.82403        27.60664         1.31323
C         14.56323        26.85500         1.09770
C         15.88590        29.00055         0.79231
C         14.59276        29.70437         0.53765
C         15.89603        31.90719         0.79172
C         14.60088        31.18349         0.68258
C         15.92256        33.35809         0.49210
C         14.63166        34.15462         0.61645
C         15.90998        36.09773        -0.32617
C         14.70275        35.46308        -0.15113
C         15.97249        37.40831        -0.95344
C         14.71627        38.01383        -1.35228
C         18.48973         5.69659        -0.38329
C         17.09467         5.34256        -0.22671
C         18.67738         7.74426        -1.09911
C         17.36420         8.34534        -0.66589
C         18.65199        10.55099        -1.00381
C         17.34420         9.82087        -0.98696
C         18.65009        11.99339        -0.66602
C         17.39869        12.71163        -0.82200
C         18.63268        14.83199        -0.37094
C         17.34795        14.05315        -0.56326
C         18.43294        16.21018         0.22002
C         17.21815        16.91038         0.07267
C         18.18383        18.90223         1.28550
C         17.10352        18.31707         0.44604
C         18.02857        20.34033         1.77084
C         17.17022        21.15204         0.79181
C         18.22871        23.27665         1.55555
C         17.04068        22.59840         1.21527
C         18.25293        24.68136         1.48357
C         17.05458        25.39690         1.36204
C         18.40584        27.54094         1.10177
C         17.12012        26.86691         1.41368
C         18.40004        28.96773         0.61727
C         17.15162        29.74487         0.96227
C         18.38649        31.80740         0.61497
C         17.17303        31.13492         0.79903
C         18.34047        33.17356         0.08665
C         17.10379        33.97501         0.26406
C         18.48450        36.11017        -0.12402
C         17.14980        35.48500         0.31773
C         18.46825        37.49283        -0.77746
C         17.16546        38.06604        -1.15767
C         20.89156         6.24931         0.43802
C         19.57041         5.48097         0.41675
C         20.99219         7.60797        -0.25022
C         19.89614         8.33764        -0.74922
C         21.22964        10.57600        -0.58363
C         19.95034         9.81674        -0.91340
C         20.99135        11.89662         0.12800
C         19.75298        12.59857        -0.09763
C         20.90126        14.67550         0.79638
C         19.58978        13.99075         0.48841
C         20.91053        16.14295         0.92212
C         19.65744        16.92288         0.59981
C         20.76701        18.98452         1.62605
C         19.52192        18.23137         1.30771
C         20.70030        20.31068         1.95477
C         19.40136        21.03624         2.04494
C         20.74783        23.33992         2.13268
C         19.44636        22.54117         2.00006
C         20.79743        24.59593         1.28881
C         19.53394        25.36741         1.20315
C         20.87416        27.49549         0.94402
C         19.58011        26.83689         1.07666
C         20.88862        28.95395         0.85308
C         19.70692        29.67590         0.85640
C         20.92951        31.82698         0.46365
C         19.69278        31.18154         1.05545
C         20.89355        33.04918        -0.11465
C         19.62951        33.81872        -0.29065
C         20.88508        35.91224        -0.70635
C         19.70643        35.30433        -0.33859
C         20.89116        37.28197        -1.20412
C         19.70417        37.95640        -1.40472
C         23.36825         6.11796         0.15125
C         22.12587         5.47317         0.04467
C         23.39458         7.56291         0.33435
C         22.22743         8.30484         0.02485
C         23.40133        10.37096         0.60865
C         22.27792         9.72430         0.08714
C         23.28642        11.76330         1.17595
C         22.04596        12.51656         0.76711
C         23.19955        14.55308         1.74949
C         22.00415        13.92668         1.10982
C         23.17193        16.04479         2.07184
C         21.99128        16.82317         1.65515
C         23.22354        18.87390         2.14484
C         22.00191        18.20144         1.76449
C         23.19873        20.35549         1.88636
C         21.95053        21.05263         2.42554
C         23.20050        23.18095         1.82616
C         22.00674        22.51823         2.00583
C         23.21995        24.63126         1.59274
C         22.07552        25.34375         1.33287
C         23.34655        27.47049         1.04184
C         22.06896        26.78057         1.09837
C         23.34907        28.90405         0.81291
C         22.17685        29.62571         0.78573
C         23.43714        31.67424         0.03300
C         22.24209        31.14566         0.80429
C         23.38986        32.92214        -0.61719
C         22.06329        33.60526        -0.90598
C         23.16389        35.63718        -1.76408
C         22.20536        35.16133        -0.66232
C         23.30718        37.15095        -1.71467
C         22.15901        37.88658        -1.56702
C         25.83617         6.11693         0.37676
C         24.61356         5.44514         0.10597
C         25.83493         7.52322         0.67338
C         24.60904         8.24257         0.60914
C         25.84500        10.34794         1.07691
C         24.61467         9.65760         0.80326
C         25.86378        11.83487         1.05527
C         24.55296        12.58277         1.01708
C         25.69441        14.63333         1.87002
C         24.52074        13.95156         1.55264
C         25.66489        16.04749         2.22466
C         24.45528        16.75162         2.25313
C         25.61880        18.91084         2.91249
C         24.40001        18.18818         2.37834
C         25.63544        20.39883         2.58960
C         24.45943        21.08121         2.25231
C         25.71014        23.16235         2.04813
C         24.47800        22.47146         2.02235
C         25.71131        24.51126         1.35824
C         24.51188        25.36807         1.81772
C         25.80522        27.40780         0.89315
C         24.54268        26.77014         1.22719
C         25.84039        28.73576         0.55696
C         24.67281        29.64518         0.85418
C         25.80932        31.50480        -0.48652
C         24.64267        30.94538         0.06839
C         25.80117        32.82186        -1.01053
C         24.56498        33.50760        -1.13022
C         25.77648        35.61196        -1.95955
C         24.49092        34.86517        -1.75794
C         25.77758        37.09941        -1.88014
C         24.58249        37.78774        -1.84287
C         28.28411         6.11763         0.58806
C         27.07728         5.44194         0.32301
C         28.25354         7.48521         0.97199
C         27.04568         8.20810         0.98090
C         28.30010        10.35344         1.42641
C         27.03951         9.64220         1.20131
C         28.29411        11.81021         1.65094
C         27.04287        12.56485         1.55502
C         28.12898        14.62575         2.50297
C         26.96049        13.91602         1.84821
C         28.15417        16.12782         2.24474
C         26.92306        16.79088         2.30800
C         28.08260        18.94714         2.50005
C         26.90533        18.21582         2.49621
C         28.01271        20.29466         3.19266
C         26.82114        21.13357         2.80687
C         28.16062        23.30253         2.78131
C         26.88249        22.51545         2.47788
C         28.12749        24.77802         2.32667
C         26.95861        25.33737         1.60268
C         28.35216        27.38461         1.01229
C         27.09363        26.57716         0.74034
C         28.42059        28.63677         0.16702
C         27.04815        29.27861        -0.10358
C         28.39192        31.33958        -0.91509
C         27.04137        30.67722        -0.62622
C         28.28105        32.84159        -1.08451
C         27.08631        33.47174        -1.30287
C         28.31652        35.71773        -1.56831
C         27.07833        34.89819        -1.74731
C         28.21248        37.19437        -1.42269
C         27.00331        37.81441        -1.64789
C         30.74989         6.18167         0.29793
C         29.54903         5.48283         0.31080
C         30.76897         7.54272         0.80248
C         29.51864         8.13023         1.44321
C         30.78022        10.33971         1.60238
C         29.48250         9.64296         1.43685
C         30.77930        11.82207         1.79917
C         29.46567        12.49659         1.88716
C         30.71282        14.73247         1.99716
C         29.46309        13.93419         2.24762
C         30.60299        16.20479         1.80774
C         29.37402        16.87391         2.07879
C         30.44648        19.06065         1.63141
C         29.32019        18.32496         2.08014
C         30.56245        20.56143         1.36967
C         29.40913        21.50185         1.48802
C         30.74883        23.25885         2.76534
C         29.44095        22.63968         2.24584
C         30.71743        24.79910         2.47418
C         29.42999        25.53828         2.28572
C         30.71041        27.68737         1.79476
C         29.47109        26.90160         1.66222
C         30.48659        29.15622         1.67020
C         29.32105        29.68013         0.80233
C         30.65915        31.70414         0.13352
C         29.44819        30.95957         0.10873
C         30.75402        32.94564        -0.50628
C         29.60518        33.55924        -1.27927
C         30.77772        35.85823        -1.15945
C         29.49179        35.04868        -0.88761
C         30.58862        37.30628        -0.75455
C         29.37506        37.91736        -0.97345
C         32.91919         6.19966        -1.04007
C         31.82002         5.59059        -0.51054
C         33.36621         7.49700        -0.55861
C         31.92725         8.28692         0.88683
C         32.99256        10.48689         0.40371
C         31.97113         9.72586         0.96632
C         32.98806        11.94518         0.60441
C         31.94326        12.57377         1.27690
C         33.06954        14.83877         0.90915
C         31.96459        14.02710         1.53381
C         32.87726        16.29593         0.74956
C         31.71342        16.93335         1.31048
C         32.72446        19.08946         0.68951
C         31.61311        18.35704         1.22852
C         32.56400        20.56878         0.65482
C         31.87805        21.12309         1.86790
C         33.06579        23.30701         1.47828
C         31.99055        22.56084         2.17537
C         33.25059        24.71355         1.89702
C         32.01000        25.52857         2.19481
C         33.27863        27.59213         1.84713
C         31.98326        27.01704         1.95397
C         33.52228        29.00700         1.92454
C         31.60320        30.12660         1.73878
C         33.19271        31.61028         0.37887
C         31.80268        31.19647         0.90858
C         33.26858        33.07841        -0.03197
C         32.00980        33.72830        -0.50272
C         33.04137        35.94393        -0.04291
C         31.95797        35.19885        -0.49153
C         32.91267        37.39166         0.02304
C         31.73987        38.02515        -0.26932
C         33.81241         8.60415        -1.20507
C         35.00900        10.68016        -1.00483
C         33.97817         9.91804        -0.54450
C         35.27801        12.09051        -0.58753
C         34.05681        12.75760         0.02804
C         35.23726        14.93432        -0.45694
C         34.04540        14.12718         0.06753
C         34.88429        16.38910        -0.74827
C         33.83502        17.02695         0.04454
C         34.87375        19.22853        -0.60089
C         33.76337        18.45470         0.05145
C         34.60888        20.71476        -0.68837
C         33.67560        21.36019         0.07004
C         34.96605        23.51280        -0.11052
C         33.82547        22.76940         0.45087
C         35.29161        24.77122         0.37584
C         34.61298        25.32009         1.61222
C         35.70982        27.56368         1.00644
C         34.55385        26.84220         1.65330
C         35.49702        28.95878         0.45499
C         34.51262        29.70944         1.30231
C         35.68915        31.86049         0.71622
C         34.42688        31.21782         1.26258
C         35.64851        33.26711         0.61833
C         34.40724        33.92729         0.41792
C         34.25872        35.31164         0.38284
C         35.76826        12.89115        -1.76915
C         36.60426        15.05020        -2.59731
C         35.84596        14.25681        -1.70145
C         36.55051        16.46091        -2.55627
C         35.55088        17.10727        -1.70910
C         36.43075        19.32943        -2.55957
C         35.26134        18.58014        -1.94888
C         36.38301        20.80679        -2.54731
C         35.51403        21.50511        -1.54513
C         37.06912        23.41254        -1.40788
C         35.84016        22.87946        -1.09140
C         37.48092        24.67525        -0.80103
C         36.49021        25.44869        -0.04776
C         37.81323        27.51781        -0.36349
C         36.73197        26.78314         0.25623
C         37.89115        28.95459        -0.16853
C         36.81259        29.69213         0.28373
C         36.82762        31.11090         0.40263
C         37.46079        17.23882        -3.28268
C         38.55416        19.41812        -3.81551
C         37.46308        18.66717        -3.21068
C         38.63068        20.77723        -3.74782
C         37.51984        21.62534        -3.16496
C         39.12921        23.50326        -2.91170
C         38.13449        22.62569        -2.15549
C         39.34297        24.80815        -2.58583
C         38.68344        25.44317        -1.42777
C         38.68649        26.88323        -1.24140
C         39.74165        21.53976        -4.27709
C         39.92263        22.84704        -3.93648
O         30.08260        25.50247         3.59372
O         32.91243        25.06497         3.28048
O         25.07657        34.98394        -3.09844
O         10.60334        18.94640        -2.80779
O         13.53334        11.16767        -0.02742
O         10.39167        16.71663        -0.03634
O         13.59407        22.79603         1.89011
O         18.71504         6.45874        -1.57558
O         15.35255        29.13696        -0.58904
O         31.04702        10.90955         2.93538
O         28.79973        20.54978         4.08590
O         38.81662        24.64111        -0.20013
O         29.24026        29.66302         2.25968
O         13.58305        32.57564        -1.06714
O         15.07458        31.60829         1.99513
O         13.14109        25.28729        -0.91464
O         15.16933        14.13434         0.57572
O         22.90159        15.02678         3.10466
O         21.75169        33.41365        -2.24693
O         26.80350        29.53323        -1.53857
O         15.20193        17.94561        -1.92425
O         27.99153        35.17558        -2.87360
O          7.68734        24.86896         1.21962
O         16.45094        27.44327         2.62512
O         20.12972        24.64947         0.00707
O         19.26339        21.81839         3.28270
O         25.30339        12.38332        -0.20769
O         15.00572         9.76694        -3.11767
O         13.06503        19.31689         0.84527
O         32.45978        21.46627         3.11209
O          9.12364        23.47974        -1.97591
O         27.13695        25.60201         3.01881
O         18.78444        33.26017        -1.35581
O         33.12571        14.44452         2.32662
O         18.58104        18.05827         2.42977
O         35.05483        21.35479        -2.96679
O         30.37651        14.26576         3.35455
O         33.05784        33.21875        -1.48727
O          8.40588        20.09115        -2.79335
O         18.70989        37.31011         0.68835
O         12.70479        17.81054        -2.58516
O         36.20006        14.83256         0.54794
O         35.66605        27.42016         2.44380
O         19.41976        10.22169        -2.23245
O         32.58094        29.74490         2.66759
O         20.72188        16.84353        -0.41553
O         31.18000        20.69477        -0.02649
O         33.16059         7.63705         0.82991
O         19.74103        31.38677         2.50795
H         20.69748        31.37947         2.76638
O         18.93456        13.82236         1.78089
H         19.57608        13.42563         2.40694
O         22.82537        35.38586         0.60857
H         22.14033        35.39816         1.30883
O         23.06764        20.47340         0.43251
H         23.92160        20.22365         0.02201
O         17.29100        20.29155         2.99308
H         17.68475        19.58492         3.55072
O         29.25228        35.05774         0.53928
H         29.27317        35.98804         0.85021
O         28.86543        30.83810        -2.22431
H         28.07683        30.77382        -2.80899
O         12.63748        12.67827        -3.24962
H         11.90679        13.16637        -3.68414
O         24.61744        25.52589         3.25890
H         23.74156        25.79087         3.60866
O         34.94652        28.73638        -0.87555
H         34.41705        29.54007        -1.11761
O         29.96286        33.43926        -2.68279
H         29.85704        32.48692        -2.91652
O         28.19820        23.28925         4.21414
H         29.12603        23.45155         4.51629
O         29.00626        28.24653        -1.10337
H         28.96063        29.03835        -1.70318
O         19.20116        14.99132        -1.69480
H         19.90705        15.68202        -1.62651
O         36.06488        19.13391         0.22661
H         35.80957        19.22108         1.16882
O         18.30983        28.84145        -0.85826
H         19.09580        28.34064        -1.16668
O         22.49784        35.35304        -3.00534
H         23.14653        34.94843        -3.62455
O         30.83777        23.12685         4.19075
H         31.59956        23.67103         4.48902
O         21.95198        20.99754         3.86721
H         21.04776        21.23591         4.17378
O         34.24866        31.78998         2.56873
H         33.62937        31.21107         3.07290
O         17.92842        21.15697        -0.45018
H         17.45134        21.69324        -1.11768
O         36.33352        12.11978         0.40997
H         36.43512        13.08537         0.67234
O          9.65749        14.04241         0.30504
H          9.79284        14.97624         0.60222
O         29.62363         7.77963         2.87161
H         30.34280         8.32324         3.26164
O         31.05524        35.88707        -2.57849
H         30.88557        34.98463        -2.94341
O         27.20593        26.15714        -0.65161
H         27.67226        26.87036        -1.15665
O         14.43231        34.48906         2.00726
H         15.24710        34.96076         2.30423
O         12.99726        27.65593         2.68130
H         13.84039        27.88438         3.13248
O         24.85000        30.07699         2.26252
H         24.99406        29.27179         2.80659
O         17.01043        35.77331         1.74965
H         17.42151        36.66179         1.88792
O         10.57542        29.14321         2.43565
H         11.31993        28.63933         2.85088
O         20.74825        23.89490         3.48639
H         20.43506        23.18672         4.09382
O         25.53748        24.19359        -0.03728
H         25.98064        24.88308        -0.58851
O         35.47059        24.86661         2.68403
H         35.06711        25.17530         3.52479
O         21.84942        10.94211        -1.84870
H         21.11943        11.02472        -2.50808
O         17.47536         8.30268         0.81026
H         16.63299         8.64041         1.18484
O         27.86669        14.49566         3.92989
H         28.73510        14.59411         4.38529
O         38.85963        21.87744        -1.15512
H         39.20552        22.53067        -0.50416
O         34.14189        18.69250        -2.85982
H         34.08414        19.64144        -3.12797
O         25.52984        18.79217         4.36211
H         26.27801        19.29008         4.75631
O         10.63780        32.02067         2.18675
H         10.53833        31.08696         2.50096
O         33.27962        30.83232        -0.84126
H         33.07786        31.46721        -1.58014
O         22.48053        31.50207         2.21468
H         23.34854        31.08921         2.47281
O         15.66019        12.48515        -2.60177
H         15.16475        10.70598        -3.38279
O         36.98823        22.41262        -4.25231
H         36.00459        22.35284        -4.20135
O         28.32296        21.16611         0.71933
H         28.55565        20.39858         0.15904
O         21.03830         6.59934         1.86996
H         21.49119         5.85200         2.31545
O         23.17608        11.57360         2.62460
H         22.39423        11.01174         2.80824
H          5.10945        18.55600        -1.29541
H          3.85204        20.61682        -1.01349
H          3.75608        23.04100        -0.61615
H          4.91534        25.22930        -0.43563
H          7.65852        14.27157        -1.72148
H          6.37526        16.40742        -1.54719
H          6.28073        27.51749        -0.39503
H          7.57398        29.60774        -0.34797
H         10.23111         9.88525        -1.81649
H          8.96927        11.99359        -1.43765
H          8.90909        31.68912        -0.41900
H          9.97732        33.96260         0.17057
H         12.63267         5.68209        -1.11121
H         11.51348         7.72293        -1.66607
H         11.29607        36.01514        -0.59196
H         12.58548        37.89014        -1.43762
H         14.65539         4.45677        -0.43668
H         14.74965        39.00864        -1.82044
H         16.85247         4.35570         0.19985
H         17.16387        39.03972        -1.67082
H         19.40659         4.87027         1.31907
H         19.69256        38.89797        -1.97327
H         22.06475         4.40783        -0.21853
H         22.19820        38.98232        -1.66586
H         24.63650         4.36327        -0.09565
H         24.60829        38.88678        -1.77361
H         27.10331         4.37840         0.04174
H         26.93616        38.90855        -1.54454
H         29.52098         4.46252        -0.10172
H         29.26658        38.99616        -0.77864
H         33.48969         5.68498        -1.82857
H         31.58130         4.58476        -0.89466
H         33.77662        37.97173         0.37875
H         31.65391        39.11385        -0.13315
H         34.08674         8.54477        -2.26891
H         35.69569        10.23980        -1.74524
H         36.58190        33.84865         0.56335
H         35.10220        35.95060         0.68413
H         36.08012        12.36689        -2.68871
H         37.37520        14.56514        -3.21754
H         38.82992        29.46476        -0.43369
H         37.74434        31.64809         0.10967
H         38.22856        16.73957        -3.89272
H         39.37082        18.84709        -4.28320
H         40.05787        25.41009        -3.16886
H         39.33431        27.49148        -1.89040
H         40.44516        21.04437        -4.96320
H         40.75203        23.41894        -4.38002
