         252
 CSIRO Nanostructure Databank - Neutral Graphene Oxide Data Set
C         30.61743        31.96754        -1.66266
C         30.84421        33.04418        -2.21602
C         30.82009        36.07159        -2.03305
C         30.78244        36.99543        -1.20361
C         30.57391        39.83669         0.32361
C         30.48301        40.93133         0.90936
C         32.66966        29.18455        -0.62888
C         31.66903        29.89064        -0.45289
C         32.95016        31.95447        -0.86051
C         31.54453        31.32495        -0.72987
C         33.30667        33.01739        -1.93064
C         32.06315        33.82940        -2.42033
C         33.27770        36.12601        -2.01728
C         32.02742        35.31533        -2.38250
C         33.07193        37.49155        -1.43537
C         31.80788        37.93788        -0.83735
C         32.93682        39.96398         0.15128
C         31.71362        39.14441        -0.17838
C         32.83513        41.35091         0.69676
C         31.56505        41.83802         1.18172
C         32.72713        43.70402         1.85898
C         31.61257        43.10536         1.79085
C         35.43532        27.39879        -0.56356
C         35.31021        28.84036        -0.77413
C         34.05540        29.62384        -0.85270
C         35.47701        31.73482        -0.63900
C         34.12592        31.10512        -0.37373
C         35.56188        33.15485        -0.86412
C         34.50996        33.86580        -1.44472
C         35.73364        36.05697        -1.03093
C         34.60379        35.33945        -1.68712
C         35.96029        37.41086        -1.18472
C         34.09587        38.40261        -1.44864
C         35.48813        40.40462        -0.69195
C         34.21863        39.54943        -0.54572
C         35.28342        41.84038        -0.05640
C         34.02703        42.12004         0.79294
C         35.21924        44.24852         1.66471
C         34.00597        43.41253         1.39375
C         35.24221        45.71464         1.25093
C         37.81884        27.25785        -0.26390
C         36.40093        26.77184        -0.11189
C         37.69646        28.76978         0.01628
C         36.58201        29.52663        -0.31922
C         37.77163        31.64415         0.28526
C         36.61539        30.98303        -0.30292
C         37.94818        33.09655         0.20490
C         36.88868        33.78800        -0.57843
C         38.00458        35.99729         0.11624
C         36.91423        35.30001        -0.56010
C         37.82915        37.44878         0.50614
C         36.82772        38.20901        -0.35268
C         37.84081        40.29851         0.35940
C         36.69683        39.58354        -0.17420
C         37.80582        41.68281         0.54634
C         36.55271        42.39610         0.58877
C         37.73037        44.56942         0.90171
C         36.50802        43.69020         1.05999
C         37.68591        46.02835         1.54581
C         36.26171        46.40931         1.28922
C         40.09167        24.59345         1.12134
C         39.06694        25.26356         0.80554
C         40.11689        27.34056         0.79234
C         38.90037        26.62412         0.55094
C         40.07783        28.78757         0.83535
C         38.83376        29.41428         0.62320
C         40.44789        31.82428         1.48828
C         38.61205        30.78366         0.98270
C         40.26845        33.30200         1.40993
C         39.09713        33.82455         0.55650
C         40.35397        36.04894         0.84958
C         39.13929        35.28731         0.47646
C         40.35906        37.44303         0.82404
C         39.13997        38.18644         0.60015
C         40.34355        40.33421         0.49033
C         39.08478        39.56900         0.55719
C         40.33404        41.76499         0.73816
C         39.03464        42.38720         1.00351
C         40.30033        44.68661         1.37029
C         39.00407        43.85407         1.29227
C         40.12977        46.08373         0.71305
C         38.79375        46.79929         0.85248
C         39.50816        48.20152        -0.96095
C         38.56583        47.70044        -0.29555
C         42.67806        24.61863         1.00207
C         41.37838        25.18098         1.08980
C         42.57238        27.37515         0.69677
C         41.35590        26.63247         0.97651
C         42.58725        28.79317         0.71234
C         41.37586        29.50399         1.29920
C         42.72576        31.71847         0.59800
C         41.45546        31.03076         1.07743
C         42.80752        33.17951         1.07708
C         41.59066        33.95819         1.11527
C         42.83980        36.04964         1.47838
C         41.59847        35.34197         1.08712
C         42.93439        37.51121         1.24554
C         41.59105        38.23248         1.26851
C         42.86445        40.42123         0.81904
C         41.64249        39.60871         0.63473
C         42.81461        41.79228         0.73466
C         41.53359        42.50703         0.77326
C         42.70979        44.69719         0.51675
C         41.51188        43.91969         0.85388
C         42.47575        46.02169        -0.19737
C         41.00908        46.31785        -0.52933
C         41.95714        48.13982        -1.85247
C         40.80209        47.72319        -1.25355
C         43.65493        25.30686         0.58548
C         44.79086        27.40355        -0.49369
C         43.76779        26.66730         0.31102
C         45.02138        28.75551         0.18150
C         43.86289        29.47675         0.59640
C         45.23335        31.52888         1.10627
C         43.94153        30.86687         0.88799
C         45.28344        33.03162         1.19216
C         44.02231        33.81636         1.22465
C         45.48594        35.91800         1.90976
C         44.11185        35.23295         1.66827
C         45.43950        37.52913         1.63569
C         44.12231        38.18400         1.24280
C         45.34107        40.47471         0.90973
C         44.13287        39.60451         0.64836
C         45.24399        41.83540         0.30329
C         44.09046        42.62383         0.88439
C         45.07724        44.65650        -0.26688
C         44.00246        44.01519         0.29616
C         44.89068        45.95203        -0.95935
C         43.59464        46.54301        -1.05432
C         43.12586        47.59485        -1.81582
C         47.19707        27.36169        -0.63271
C         46.13817        26.72242        -0.62137
C         47.59161        28.67326        -0.22837
C         46.37584        29.29616         0.42092
C         47.78027        31.46115         0.65565
C         46.49184        30.72672         0.88087
C         47.75674        32.95301         0.53348
C         46.52317        33.76161         0.76594
C         47.93532        35.59901         1.47194
C         46.66557        35.18166         1.22434
C         48.07173        37.83158         1.51090
C         46.71335        38.41942         1.55515
C         47.93019        40.54977         0.65211
C         46.66768        39.87206         1.14419
C         47.78611        41.80719        -0.15300
C         46.46552        42.50740        -0.18253
C         47.48740        44.48096        -1.26077
C         46.48490        44.02664        -0.15639
C         47.08150        45.68989        -1.68032
C         46.04375        46.46260        -1.57379
C         49.94138        28.94490        -1.14028
C         48.76402        29.33939        -0.42708
C         50.01462        31.61531        -0.65801
C         48.95841        30.77468        -0.01861
C         50.17985        32.91486        -0.17614
C         49.12803        33.55530         0.64441
C         50.35512        35.85861         0.55472
C         49.21775        35.00702         1.01894
C         50.38537        37.37484         0.58852
C         49.15606        38.25115         0.79228
C         50.42002        40.38581        -0.16820
C         49.19656        39.74092         0.50461
C         50.12190        41.68081        -0.95883
C         48.81580        42.31583        -0.90902
C         49.77604        44.11794        -2.28391
C         48.45835        43.49910        -1.86276
C         50.96719        29.52694        -1.52616
C         52.27266        31.79542        -1.58642
C         50.98255        31.02310        -1.75448
C         52.27468        32.97271        -1.17900
C         51.34363        33.72760        -0.40222
C         52.44757        35.95416        -0.52657
C         51.39213        35.10740        -0.06718
C         52.44506        37.14732        -0.87772
C         51.52892        38.09620        -0.22693
C         52.38280        40.13299        -1.53808
C         51.19456        39.34127        -1.01491
C         52.27072        41.32230        -1.86905
C         51.18674        42.24102        -1.68802
C         50.84015        43.48532        -2.30260
O         48.15562        36.68968         2.30265
O         48.93160        40.54335         1.72015
O         45.46827        41.95796        -1.12405
O         34.28727        35.88766        -3.01117
O         46.96317        33.45410        -0.60408
O         46.61867        29.64648         1.84051
O         35.24324        38.09539        -2.19699
O         32.17711        34.59672        -3.62644
O         46.00085        38.19473         2.80029
O         48.88938        30.97813         1.44060
O         32.02936        32.27056         0.24223
O         39.93372        47.16221         1.66608
O         51.55920        38.04280         1.18692
O         33.95231        39.15731         0.84495
O         42.80510        46.00628         1.20242
O         45.94735        40.59135         2.21199
O         37.42832        34.51179        -1.72559
O         34.75610        29.29209        -2.04840
O         45.39533        32.24529         2.41568
O         41.12239        39.80445        -0.71280
O         38.87634        42.94619         2.41073
O         43.24747        35.56046         2.79803
O         49.56989        33.92763         1.98010
O         39.33401        31.21828         2.10039
O         35.73803        40.63452        -2.09373
H         35.83518        39.75435        -2.53565
O         51.32787        40.75689         0.87824
H         50.79142        41.06730         1.64323
O         38.22010        27.09890        -1.62521
H         37.50465        27.43270        -2.20708
O         41.43900        29.28885         2.73653
H         40.68915        29.77739         3.14143
O         42.68655        31.79716        -0.86630
H         41.90626        32.33083        -1.12719
O         44.21303        39.33836        -0.79310
H         43.31553        39.42142        -1.18586
O         50.43524        31.29852        -3.01906
H         51.01644        30.92283        -3.71182
O         44.25864        27.63277        -1.80592
H         44.05453        26.76702        -2.21708
O         41.36802        38.51200         2.68641
H         41.59597        37.70758         3.20161
O         50.38954        38.94359        -2.11778
H         50.90725        38.33132        -2.68276
O         33.76880        32.24137        -3.04811
H         33.91697        32.84845        -3.80490
O         35.40315        44.23534         3.07665
H         36.17422        44.80350         3.30746
O         34.06181        31.01328         1.06563
H         33.20882        31.42282         1.35383
O         47.83835        42.90789        -2.99847
H         47.47602        43.61349        -3.57339
O         37.91772        45.95104         2.93358
H         38.78230        46.39014         3.12728
O         37.84993        44.79946        -0.53748
H         36.96825        45.08228        -0.86954
O         39.92672        33.73265         2.76618
H         39.32606        33.04989         3.13998
O         44.34177        42.76969         2.29922
H         43.68254        43.39088         2.67345
O         45.70017        35.76183         3.30778
H         46.31752        36.46926         3.60770
O         40.54120        44.92720         2.77472
H         40.24759        44.11934         3.25690
O         37.23900        37.41794         1.84932
H         37.93003        37.11584         2.47664
O         40.60747        45.30851        -1.47080
H         39.62419        45.31112        -1.54400
O         47.02096        44.41051         1.11536
H         46.95746        45.38374         1.20934
O         35.05671        42.76795        -1.15309
H         35.39019        42.34790        -1.98190
