         600
 CSIRO Nanostructure Databank - Neutral Graphene Oxide Data Set
C         22.94841        27.36300        -0.22594
C         22.95346        28.74752        -0.18989
C         23.15020        31.64114        -0.95813
C         23.17723        32.97262        -1.12509
C         23.13524        35.95490        -1.25207
C         23.15152        37.32888        -1.41628
C         23.14011        40.25893        -1.43700
C         23.14231        41.63333        -1.41376
C         23.11142        44.54981        -1.17509
C         23.10139        45.91654        -1.08395
C         25.34780        24.53686         0.10090
C         24.16821        25.22859        -0.07268
C         25.41311        27.35098        -0.17052
C         24.17068        26.64549        -0.17372
C         25.40509        28.79497        -0.20252
C         24.15963        29.47019        -0.16303
C         25.40852        31.65864         0.06241
C         24.06610        30.96239         0.04381
C         25.39975        33.13505         0.13498
C         24.16662        33.83228        -0.43298
C         25.47314        35.96936        -0.53945
C         24.27133        35.26585        -0.78270
C         25.50858        37.37831        -0.77466
C         24.32643        38.07597        -1.16215
C         25.57180        40.21981        -1.16220
C         24.34183        39.51654        -1.26616
C         25.58777        41.66830        -1.21026
C         24.34868        42.37683        -1.26514
C         25.56242        44.51696        -1.01793
C         24.33657        43.80871        -1.15988
C         25.55872        45.94363        -0.93100
C         24.32245        46.65161        -0.97983
C         25.53172        48.75593        -0.92509
C         24.32964        48.06163        -0.96102
C         27.93647        23.04360         0.12761
C         27.83921        24.47462         0.43717
C         26.58799        25.22048         0.14787
C         27.91611        27.31538        -0.19847
C         26.62182        26.61623        -0.01371
C         27.89817        28.83586        -0.37787
C         26.62833        29.53656        -0.15900
C         27.85092        31.68250         0.37248
C         26.59503        30.96014         0.03887
C         27.89434        33.16306         0.32900
C         26.66951        33.88841         0.15115
C         27.90342        36.01451        -0.00998
C         26.67519        35.28000        -0.10679
C         27.95044        37.38307        -0.29713
C         26.74186        38.09553        -0.65471
C         28.06139        40.16336        -1.01521
C         26.76569        39.47783        -0.92336
C         28.08831        41.67127        -1.17413
C         26.80495        42.40057        -1.13403
C         28.04052        44.55627        -0.91164
C         26.81146        43.81118        -1.02267
C         28.03518        45.94152        -0.79662
C         26.78437        46.66931        -0.83935
C         28.06247        48.84884        -0.95966
C         26.76278        48.08057        -0.85184
C         28.01443        50.23197        -0.36388
C         30.39706        23.07857         0.27214
C         29.12883        22.39745         0.12102
C         30.42294        24.48232         0.34847
C         29.16577        25.23775         0.49765
C         30.40685        27.36651         0.17300
C         29.18211        26.66747         0.15250
C         30.43552        28.79895         0.11410
C         29.22458        29.59430        -0.35444
C         30.41154        31.69666         0.35723
C         29.14304        30.93664         0.33577
C         30.37649        33.12180         0.45114
C         29.12492        33.82684         0.39957
C         30.41305        36.00165         0.27659
C         29.10711        35.32634         0.60401
C         30.42478        37.40419         0.05074
C         29.20645        38.11080        -0.21283
C         30.46667        40.22747        -0.37300
C         29.26204        39.48663        -0.50626
C         30.47728        41.67600        -0.49135
C         29.32335        42.37815        -0.80386
C         30.52067        44.55373        -0.41406
C         29.36681        43.85391        -1.08889
C         30.49261        45.94966        -0.27860
C         29.27244        46.68091        -0.55182
C         30.46414        48.78895        -0.12260
C         29.26615        48.06690        -0.47305
C         30.43812        50.21007        -0.04532
C         29.15321        50.88084        -0.04275
C         32.84914        20.23808         0.05617
C         31.66347        20.92841         0.12405
C         32.87136        23.05455         0.25259
C         31.63452        22.34987         0.20984
C         32.87991        24.48448         0.32709
C         31.65257        25.20348         0.32966
C         32.87516        27.34807         0.41479
C         31.64898        26.64241         0.34380
C         32.87567        28.78963         0.49232
C         31.61788        29.50911         0.38271
C         32.81407        31.69818         0.79109
C         31.59419        30.95678         0.46213
C         32.84260        33.15231         0.57050
C         31.61384        33.84581         0.47234
C         32.87292        35.97643         0.28086
C         31.61864        35.28588         0.34950
C         32.88902        37.39245         0.13861
C         31.66374        38.10702         0.00930
C         32.90509        40.24858         0.00624
C         31.67576        39.53209        -0.12006
C         32.89604        41.68159         0.06700
C         31.70412        42.39444        -0.18618
C         32.87322        44.52335         0.33314
C         31.69742        43.82375        -0.11021
C         32.84711        45.93784         0.45139
C         31.67466        46.65008         0.13597
C         32.87735        48.81325         0.42083
C         31.66719        48.09056         0.17733
C         32.88390        50.23323         0.27309
C         31.65596        50.93499         0.07952
C         32.88536        53.03510        -0.02868
C         31.69316        52.35764        -0.03500
C         35.39071        18.78170        -0.17569
C         35.34655        20.19573         0.00486
C         34.10359        20.91299         0.08828
C         35.35086        23.03309         0.32422
C         34.10599        22.33057         0.20633
C         35.34689        24.47512         0.42617
C         34.12479        25.19302         0.39695
C         35.35140        27.33482         0.47303
C         34.11674        26.62902         0.44164
C         35.34691        28.77657         0.49580
C         34.10238        29.47303         0.56676
C         35.35624        31.68586         0.51030
C         34.14151        30.93057         0.80170
C         35.33489        33.10358         0.44914
C         34.08863        33.82949         0.51654
C         35.33814        35.95814         0.31621
C         34.10078        35.25517         0.37818
C         35.34063        37.36606         0.14228
C         34.13473        38.09603         0.08418
C         35.34229        40.26869         0.20989
C         34.13296        39.53899         0.07128
C         35.33775        41.64913         0.50829
C         34.09676        42.38882         0.42582
C         35.26509        44.48787         1.10866
C         34.06186        43.78056         0.61394
C         35.31861        45.96557         0.99947
C         33.99800        46.67612         1.10721
C         35.31138        48.81849         0.84959
C         34.08918        48.13330         0.74127
C         35.34275        50.25206         0.62737
C         34.11756        50.94781         0.34095
C         35.38176        53.04779         0.07818
C         34.12740        52.35153         0.13551
C         35.44940        54.41025        -0.30404
C         37.83603        18.79138        -0.18751
C         36.58253        18.10606        -0.25582
C         37.82674        20.19978         0.00119
C         36.57738        20.90435         0.12093
C         37.82999        22.99824         0.73967
C         36.55836        22.31117         0.33187
C         37.82003        24.48309         0.50608
C         36.59265        25.18672         0.48725
C         37.82719        27.32311         0.56971
C         36.58387        26.61939         0.49917
C         37.81041        28.77710         0.46002
C         36.56566        29.49524         0.44144
C         37.76998        31.63920         0.13312
C         36.58102        30.94766         0.35078
C         37.81587        33.12057        -0.14677
C         36.55444        33.83341         0.26972
C         37.84889        35.94485         0.37707
C         36.58041        35.22938         0.31078
C         37.86946        37.35317         0.29644
C         36.62528        38.05318        -0.03808
C         37.85836        40.25440         0.45453
C         36.62612        39.58970         0.02850
C         37.80010        41.61962         0.79892
C         36.57190        42.30181         0.79701
C         37.83230        44.45928         1.19001
C         36.55418        43.71721         1.20734
C         37.76351        45.91841         1.38314
C         36.50470        46.65546         1.11319
C         37.79281        48.79984         1.11627
C         36.55368        48.10587         1.06512
C         37.76346        50.30470         1.31163
C         36.54740        50.96612         0.71161
C         37.84659        53.04214         0.30807
C         36.59178        52.35125         0.38097
C         37.86924        54.39060        -0.06805
C         36.66486        55.05592        -0.38793
C         40.26013        15.97916        -0.71691
C         39.13163        16.64340        -0.37863
C         40.29796        18.81734        -0.43219
C         39.07424        18.09061        -0.35579
C         40.29987        20.23386        -0.20892
C         39.07354        20.92374         0.02332
C         40.30658        23.03935         0.30221
C         39.08614        22.31837         0.26008
C         40.29342        24.44261         0.54690
C         39.05979        25.17082         0.55908
C         40.31015        27.31988         0.77256
C         39.03597        26.60354         0.63096
C         40.27874        28.80575         0.52548
C         39.00439        29.46676         0.26864
C         40.32824        31.68397         0.14395
C         39.01625        30.90216        -0.02479
C         40.25130        33.10393         0.50600
C         39.07613        33.79471         0.38471
C         40.29675        35.93837         0.73661
C         39.07040        35.23620         0.56401
C         40.30809        37.37898         0.65871
C         39.07776        38.08873         0.44811
C         40.30490        40.22766         0.72429
C         39.07144        39.51634         0.53579
C         40.31596        41.63137         0.91162
C         39.03859        42.29999         1.34508
C         40.30069        44.51030         1.10148
C         39.03521        43.79892         1.15343
C         40.31581        45.92124         1.12729
C         39.07002        46.67129         1.36349
C         40.29936        48.79714         1.15725
C         39.03971        48.13028         1.15001
C         40.32075        50.29053         1.43459
C         39.06514        51.00004         0.98288
C         40.35381        53.04577         0.49358
C         39.08754        52.31114         0.58086
C         40.37187        54.41410         0.24581
C         39.16057        55.14013        -0.28067
C         40.27339        57.25909         0.37866
C         39.12529        56.58022         0.18042
C         42.75739        15.98787        -1.03071
C         41.46462        16.72403        -1.21075
C         42.76600        18.80962        -0.62842
C         41.52128        18.13687        -0.69217
C         42.77874        20.24269        -0.36562
C         41.53783        20.94787        -0.18710
C         42.79959        23.04655         0.10438
C         41.55072        22.33795         0.08638
C         42.82485        24.43558         0.36477
C         41.59260        25.11985         0.90779
C         42.77476        27.27129         0.44804
C         41.59317        26.59556         0.61900
C         42.79982        28.72910         0.18067
C         41.53302        29.49863         0.11664
C         42.76270        31.58173         0.66069
C         41.57595        30.94928         0.37686
C         42.75919        33.00402         1.06960
C         41.42680        33.74859         1.20847
C         42.76644        35.89933         0.89370
C         41.53203        35.22823         0.89433
C         42.78809        37.38519         1.14267
C         41.51522        38.09160         0.77208
C         42.77264        40.22766         0.71203
C         41.53399        39.50663         0.72376
C         42.76541        41.64039         0.72226
C         41.52534        42.35122         0.88157
C         42.76102        44.50742         0.87689
C         41.52995        43.79162         0.96855
C         42.76817        45.92944         0.95260
C         41.53344        46.64596         1.05654
C         42.79571        48.80099         1.47963
C         41.50372        48.08094         1.15433
C         42.79122        50.24666         1.02723
C         41.59513        50.95511         0.98085
C         42.82961        53.05545         0.64413
C         41.59320        52.35091         0.70892
C         42.83048        54.48310         0.52434
C         41.59172        55.16010         0.35278
C         42.76332        57.29953         0.44682
C         41.56051        56.58398         0.35370
C         43.93638        16.67036        -0.94014
C         45.27667        18.86592        -0.97721
C         43.97931        18.09304        -0.80923
C         45.26644        20.14268        -0.13728
C         43.99352        20.93245        -0.28536
C         45.27135        23.05334        -0.18170
C         44.02786        22.34192        -0.11912
C         45.25954        24.46146        -0.04358
C         44.03648        25.15188         0.25286
C         45.23581        27.31716         0.18156
C         44.04090        26.58268         0.34443
C         45.25956        28.75820         0.27457
C         44.04881        29.48081         0.38262
C         45.25948        31.61601         0.49187
C         44.02687        30.87819         0.55597
C         45.27331        33.03430         0.53148
C         44.05352        33.76009         0.93255
C         45.22878        35.92259         0.53850
C         44.01841        35.22868         0.80529
C         45.22474        37.36811         0.45754
C         44.02693        38.08860         0.64791
C         45.22520        40.22032         0.38318
C         44.01208        39.50229         0.58434
C         45.22119        41.65104         0.41687
C         43.99941        42.36614         0.61626
C         45.22772        44.50130         0.56259
C         43.99856        43.78728         0.69061
C         45.23754        45.92714         0.66214
C         44.01832        46.65091         0.89333
C         45.26500        48.76861         0.95567
C         44.04183        48.05112         1.05472
C         45.25417        50.19440         0.99992
C         44.03512        50.93153         0.89683
C         45.29802        53.08935         0.80496
C         44.05718        52.35186         0.77775
C         45.30107        54.51131         0.73494
C         44.04558        55.22646         0.59239
C         43.98412        56.63403         0.53443
C         47.68930        18.77327        -0.37283
C         46.55477        18.11032        -0.68011
C         47.74044        20.23310        -0.31805
C         46.53712        20.94066        -0.34474
C         47.75206        23.07557        -0.56565
C         46.52894        22.36001        -0.36710
C         47.65653        24.52467        -0.65943
C         46.46186        25.20379        -0.24658
C         47.63652        27.37619        -0.34705
C         46.45001        26.62397        -0.12094
C         47.68168        28.78647        -0.14873
C         46.47842        29.48353         0.17098
C         47.69151        31.62944         0.06294
C         46.47677        30.90689         0.25352
C         47.68041        33.05474         0.06383
C         46.46033        33.76420         0.29925
C         47.65533        35.91588         0.01954
C         46.44935        35.20793         0.30110
C         47.65666        37.35169        -0.01826
C         46.44196        38.07291         0.19384
C         47.66216        40.21839        -0.00848
C         46.44186        39.50212         0.18399
C         47.66677        41.64606         0.04258
C         46.44782        42.36140         0.26688
C         47.68088        44.49625         0.19508
C         46.45183        43.78774         0.34339
C         47.68434        45.92209         0.27749
C         46.46877        46.63400         0.53558
C         47.70657        48.74774         0.43335
C         46.49152        48.05536         0.67882
C         47.81824        50.17305         0.76961
C         46.49596        50.93994         1.11937
C         47.76743        53.07928         0.91645
C         46.52767        52.39398         0.94107
C         47.73814        54.49333         0.88725
C         46.54049        55.18545         0.81888
C         50.15240        20.29948         0.26467
C         48.97476        20.95851        -0.19881
C         50.30534        23.01730        -0.34944
C         49.00331        22.36661        -0.44229
C         50.57488        24.27182        -0.94172
C         48.68602        25.33257        -1.17295
C         49.92709        27.50285        -1.19299
C         48.76261        26.72913        -0.93189
C         50.09797        28.81069        -0.70655
C         48.90068        29.50147        -0.31140
C         50.13233        31.62229        -0.35614
C         48.90848        30.91789        -0.17823
C         50.11408        33.04996        -0.33959
C         48.89280        33.77156        -0.16706
C         50.08665        35.90766        -0.50046
C         48.87615        35.20038        -0.21043
C         50.08403        37.35671        -0.52712
C         48.86868        38.06667        -0.26118
C         50.09584        40.21438        -0.41666
C         48.87503        39.49732        -0.23522
C         50.10487        41.64455        -0.37146
C         48.89225        42.36224        -0.12787
C         50.13739        44.49779        -0.19737
C         48.90129        43.78820        -0.05050
C         50.13703        45.94200        -0.17087
C         48.89538        46.63698         0.04565
C         50.04481        48.79064        -0.44989
C         48.86468        48.05467         0.02279
C         50.08423        50.33780        -0.30539
C         48.95650        50.97863         0.36912
C         50.27265        53.00703         0.57304
C         49.01731        52.34765         0.68735
C         51.28921        20.99712         0.60601
C         52.59803        23.13901         0.62753
C         51.40213        22.38478         0.32071
C         52.69113        24.50899         0.25636
C         51.68217        25.07478        -0.58648
C         52.73438        27.32140        -0.39991
C         51.80160        26.44106        -0.97488
C         52.63110        28.76847        -0.48133
C         51.38619        29.47460        -0.62544
C         52.58904        31.64079        -0.48719
C         51.36420        30.90244        -0.49428
C         52.57450        33.05980        -0.56239
C         51.32884        33.76824        -0.52911
C         52.53028        35.86189        -1.05151
C         51.28737        35.17862        -0.66653
C         52.51749        37.37808        -1.10055
C         51.27750        38.08395        -0.73943
C         52.54959        40.21485        -0.80278
C         51.30919        39.49980        -0.64157
C         52.56004        41.63028        -0.76498
C         51.32928        42.35448        -0.54678
C         52.62181        44.47371        -0.46085
C         51.33244        43.76965        -0.43017
C         52.61992        45.98919        -0.43446
C         51.32819        46.68487        -0.36307
C         52.52767        48.82833        -0.73119
C         51.33099        48.09458        -0.51730
C         52.55208        50.26488        -0.69181
C         51.38636        51.00279        -0.28170
C         51.42553        52.33057         0.18207
C         54.83829        23.32037         1.59036
C         53.70753        22.57734         1.32135
C         54.94945        24.69138         1.22054
C         53.83542        25.30249         0.57726
C         55.01790        27.46678         0.51750
C         53.85588        26.70228         0.25831
C         55.03213        28.86280         0.19380
C         53.82566        29.51777        -0.21161
C         55.04509        31.67338        -0.24845
C         53.82648        30.94117        -0.33965
C         55.04640        33.09087        -0.44317
C         53.81362        33.78247        -0.61299
C         55.02745        35.91269        -0.86907
C         53.81876        35.18410        -0.83350
C         55.01923        37.35799        -0.99060
C         53.80528        38.07641        -0.98741
C         55.01479        40.19576        -1.09476
C         53.78699        39.49399        -0.94288
C         54.98069        41.61181        -1.21796
C         53.79500        42.32823        -0.99947
C         54.95459        44.49845        -1.28878
C         53.82392        43.77995        -0.98545
C         54.92431        45.98155        -1.56885
C         53.77667        46.72056        -0.94990
C         54.99090        48.83272        -1.21930
C         53.76217        48.11323        -0.98661
C         54.94548        50.23437        -1.24158
C         53.76639        50.92951        -0.98113
C         57.33629        24.86738         1.96402
C         56.15247        25.45732         1.42944
C         57.39638        27.57886         1.17131
C         56.18476        26.82967         1.05042
C         57.44107        28.95342         0.78027
C         56.24130        29.60502         0.33688
C         57.49499        31.72910         0.09914
C         56.26311        30.99855         0.05089
C         57.50736        33.12626        -0.20925
C         56.27293        33.81700        -0.45950
C         57.50810        35.94606        -0.72011
C         56.26767        35.22310        -0.68457
C         57.50773        37.36169        -0.93335
C         56.26078        38.07342        -1.02713
C         57.50237        40.20655        -1.27081
C         56.25545        39.48472        -1.15313
C         57.50417        41.61501        -1.46361
C         56.21362        42.30478        -1.62170
C         57.48404        44.53231        -1.55208
C         56.19916        43.81338        -1.68464
C         57.46594        45.95768        -1.41928
C         56.24335        46.68993        -1.37236
C         57.50286        48.77173        -1.21013
C         56.24928        48.09323        -1.28776
C         58.50506        25.58338         2.07723
C         59.77849        27.68820         1.74414
C         58.56924        26.94644         1.66905
C         59.82469        29.00376         1.33607
C         58.66528        29.67195         0.85118
C         59.91249        31.79956         0.41368
C         58.70244        31.06229         0.45089
C         59.93027        33.13619         0.06693
C         58.73565        33.83897        -0.23305
C         59.94731        35.98865        -0.62176
C         58.73779        35.25561        -0.53198
C         59.94745        37.34766        -0.86082
C         58.73706        38.07064        -1.00396
C         59.93497        40.24756        -1.34186
C         58.73641        39.50548        -1.20656
C         59.92254        41.62179        -1.49085
C         58.70655        42.34929        -1.54005
C         59.91468        44.55643        -1.49233
C         58.69461        43.81862        -1.56402
C         59.92044        45.92927        -1.39371
C         58.70444        46.66239        -1.34418
C         58.69169        48.07984        -1.23764
O         49.76080        49.67813        -1.58187
O         52.92328        45.19233         0.79409
O         28.26065        40.78931        -2.34354
O         33.45926        31.30536         2.05175
O         52.41943        36.57628        -2.33470
O         39.80293        31.35099        -1.20929
O         47.39794        50.44753         2.14876
O         27.90475        27.94853        -1.55485
O         35.74135        43.97392         2.42087
O         24.32485        33.64373         1.02027
O         40.34931        28.27442         1.90542
O         49.69651        24.72658        -1.93804
O         42.14650        29.05026        -1.13168
O         43.58035        33.25397         2.26621
O         28.43109        31.04742         1.59851
O         36.72121        38.86933        -1.25085
O         38.40529        46.32021         2.64543
O         50.95032        26.93837        -1.97566
O         28.42225        24.87873         1.72456
O         56.08295        43.01550        -2.91993
O         28.27045        49.04432        -2.40549
H         29.13157        49.50079        -2.51519
O         28.94869        35.51151         2.06489
H         28.17653        34.97398         2.34456
O         37.86457        33.25219        -1.61192
H         38.60895        32.67274        -1.91096
O         42.83096        48.85705         2.94697
H         42.03135        49.36893         3.22708
O         38.98899        42.10010         2.80166
H         38.24228        42.63466         3.14922
O         37.61198        50.46923         2.78457
H         36.84851        49.91706         3.06241
O         45.28209        19.69921         1.25551
H         45.22435        20.49424         1.82559
O         23.45314        31.12606         1.36021
H         23.53663        32.08615         1.58793
O         41.28707        16.84355        -2.68867
H         42.00885        17.42436        -3.01248
O         29.51346        29.94452        -1.74265
H         29.26175        29.15798        -2.28144
O         29.64338        43.94834        -2.53957
H         30.33337        43.28566        -2.75597
O         45.32251        19.26847        -2.37843
H         45.44009        18.46204        -2.92213
O         42.86317        37.49995         2.61952
H         43.65686        37.00089         2.90931
O         33.68291        46.65564         2.55416
H         33.93043        45.76910         2.89709
O         39.33453        55.19917        -1.74325
H         40.17686        55.67202        -1.91435
O         41.68253        24.98824         2.38666
H         42.37563        25.60996         2.69577
O         40.35867        50.38733         2.90680
H         39.41927        50.32440         3.21847
O         37.87686        22.85249         2.22032
H         38.68381        23.32102         2.52780
O         54.66414        46.03598        -3.03098
H         55.27986        45.40197        -3.46069
O         41.07148        33.68782         2.62644
H         41.91827        33.77900         3.12391
H         21.99925        26.80856        -0.23201
H         22.00154        29.29497        -0.14984
H         22.41951        31.03323        -1.51288
H         22.50379        33.44559        -1.85536
H         22.20253        35.40579        -1.43945
H         22.23345        37.83041        -1.74817
H         22.18004        39.73645        -1.53960
H         22.18219        42.15721        -1.50494
H         22.15331        44.02158        -1.26467
H         22.14955        46.46671        -1.10571
H         25.32002        23.44609         0.22530
H         23.20860        24.69255        -0.08807
H         25.50506        49.85263        -0.97437
H         23.37740        48.60850        -1.01442
H         27.02475        22.49029        -0.13815
H         27.05875        50.77164        -0.31452
H         29.13009        21.32165        -0.09853
H         29.10297        51.92578         0.29555
H         32.81540        19.14286        -0.01039
H         30.72626        20.35742         0.11400
H         32.87223        54.12660        -0.14525
H         30.75960        52.91944        -0.17173
H         34.45726        18.21029        -0.26318
H         34.53752        54.95762        -0.57494
H         36.56456        17.01948        -0.41258
H         36.69548        56.09697        -0.73627
H         40.28561        14.87938        -0.71361
H         38.24378        16.07121        -0.07384
H         40.25735        58.33410         0.61432
H         38.16245        57.10855         0.23155
H         42.75654        14.89173        -1.12221
H         42.73904        58.39874         0.45416
H         44.87830        16.10227        -0.93125
H         44.90402        57.23086         0.59188
H         48.61761        18.20185        -0.22896
H         46.58858        17.01674        -0.79532
H         48.67627        55.06409         0.89423
H         46.57222        56.28282         0.79490
H         50.12108        19.21971         0.46208
H         50.36098        54.06374         0.85783
H         52.12971        20.45798         1.06281
H         52.38365        52.86842         0.20860
H         55.67021        22.83010         2.11368
H         53.67866        21.52721         1.64236
H         55.85557        50.81456        -1.44590
H         53.78867        52.02767        -0.99977
H         57.32767        23.81432         2.27578
H         57.52704        49.86609        -1.12126
H         59.41029        25.10323         2.47615
H         60.68436        27.19744         2.12830
H         60.77797        29.54421         1.40714
H         60.86462        31.30904         0.65537
H         60.89622        33.65774         0.05094
H         60.91204        35.47824        -0.50432
H         60.91172        37.86889        -0.92086
H         60.90587        39.73534        -1.32219
H         60.88476        42.14288        -1.57682
H         60.87692        44.02877        -1.51373
H         60.87443        46.47382        -1.34433
H         59.64771        48.61965        -1.17724
