         276
 CSIRO Nanostructure Databank - Neutral Graphene Oxide Data Set
C        -10.81783         0.72136         0.43756
C         -9.94739         1.57447         1.32786
C         -8.57301         0.91146         1.44297
C         -7.35319         1.61376         0.97597
C         -6.03635         0.87408         0.86761
C         -4.86138         1.56304         0.23589
C         -3.74794         0.71755        -0.32333
C         -2.68813         1.35721        -1.19132
C         -1.39487         0.60539        -1.47402
C         -0.09936         1.38032        -1.29014
C          1.19053         0.64236        -1.02606
C          2.53418         1.34750        -0.74370
C          3.82441         0.72273        -1.28546
C          5.06309         1.47886        -0.88661
C          6.20863         0.67220        -0.35249
C          7.24457         1.39990         0.42881
C          8.56712         0.77135         0.70290
C          9.83480         1.53999         0.56980
C         11.04493         0.66091         0.59694
C         -9.85594         3.05993         1.00653
C         -8.72257         3.72065         0.65229
C         -7.54379         2.89480         0.16036
C         -6.21583         3.65418         0.21755
C         -5.16187         2.84321        -0.54938
C         -3.91835         3.63637        -1.01793
C         -2.69760         2.85667        -1.44730
C         -1.38091         3.59490        -1.72498
C         -0.02905         2.81880        -1.80865
C          1.15521         3.60806        -1.21269
C          2.43806         2.87914        -0.89004
C          3.72632         3.65708        -0.76747
C          5.01902         2.95980        -0.48911
C          5.88019         3.52414         0.66717
C          7.33606         2.89562         0.78252
C          8.51636         3.59027         0.08194
C          9.71798         2.92440         0.05223
C         -8.62178         5.17808         0.61064
C         -7.45249         5.86771         0.48979
C         -6.16650         5.12717         0.38838
C         -4.89886         5.83858        -0.00360
C         -3.76547         5.09859        -0.65246
C         -2.67188         5.86859        -1.36423
C         -1.39371         5.10612        -1.67379
C         -0.08352         5.86895        -1.58534
C          1.19984         5.09903        -1.47228
C          2.45065         5.84506        -1.04583
C          3.55078         5.08437        -0.35822
C          4.77041         5.79085         0.12065
C          6.00342         5.06641         0.64440
C          7.31120         5.71613         0.30224
C          8.47121         5.04955         0.05375
C         -7.43304         7.39399         0.45443
C         -6.03725         7.99259         0.78797
C         -4.99755         7.32753        -0.11478
C         -3.83741         8.09011        -0.65122
C         -2.66551         7.37461        -1.29877
C         -1.34294         8.13683        -1.49903
C         -0.14411         7.29629        -1.06893
C          1.09527         8.00066        -0.61228
C          2.41407         7.30711        -0.74838
C          3.62318         8.01461        -0.16655
C          4.90773         7.28460         0.01798
C          6.11940         7.92266         0.70822
C          6.98733         6.80191         1.32177
C         -6.03309         9.49621         0.55102
C         -4.93229        10.16119         0.16907
C         -3.61851         9.43245         0.02272
C         -2.45037        10.20557        -0.52367
C         -1.30137         9.54360        -0.91819
C         -0.04728        10.20971        -0.77329
C          1.14537         9.49377        -0.50056
C          2.28028        10.08683         0.04402
C          3.29856         9.19395         0.72214
C          4.53698         9.79614         1.35389
C          5.69855         9.13418         1.52369
C        -10.77286        -0.61192         0.55791
C         -9.84380        -1.35247         1.51113
C         -8.52054        -0.58662         1.67255
C         -7.21898        -1.32509         1.55352
C         -6.05034        -0.66239         0.78934
C         -4.66667        -1.22666         1.21303
C         -3.49665        -0.61238         0.36294
C         -2.33880        -1.42652        -0.14186
C         -1.33945        -0.84815        -1.12664
C         -0.02617        -1.59741        -1.27660
C          1.26240        -0.81506        -1.41805
C          2.59174        -1.53187        -1.55212
C          3.90987        -0.79815        -1.41915
C          5.23255        -1.52145        -1.25004
C          6.52485        -0.69891        -0.96658
C          7.59343        -1.46819        -0.12471
C          8.65164        -0.70976         0.60431
C          9.71048        -1.31208         1.51789
C         11.00318        -0.61682         1.04289
C         -9.64997        -2.77151         0.99059
C         -8.51148        -3.49122         0.99539
C         -7.22171        -2.88443         1.57562
C         -5.95929        -3.48176         0.94874
C         -4.63667        -2.78368         1.24585
C         -3.38421        -3.55275         0.94190
C         -2.33385        -2.92029         0.06924
C         -1.13501        -3.73851        -0.31790
C          0.04322        -3.07017        -1.00793
C          1.38172        -3.77776        -1.12336
C          2.65139        -3.04669        -1.49551
C          4.00312        -3.77619        -1.38766
C          5.36124        -3.06546        -1.18396
C          6.12140        -3.58961         0.05930
C          7.32893        -2.81872         0.47980
C          8.49715        -3.49072         1.13391
C          9.63275        -2.82357         1.44876
C         -8.56620        -5.01021         0.81229
C         -7.28078        -5.66625         0.34730
C         -6.00556        -4.88973         0.43395
C         -4.77178        -5.72651         0.60611
C         -3.46066        -5.07244         0.87732
C         -2.22430        -5.89214         0.61978
C         -0.97586        -5.11806         0.26033
C          0.25903        -5.87275        -0.05982
C          1.49410        -5.10979        -0.46555
C          2.75426        -5.88048        -0.56477
C          3.99417        -5.24603        -1.10287
C          5.25518        -5.91313        -0.60794
C          6.03689        -5.09528         0.42059
C          7.34919        -5.78901         0.80131
C          8.37088        -4.95110         1.55454
C         -7.26250        -6.91426        -0.17695
C         -5.96994        -7.49260        -0.73160
C         -4.83643        -7.18744         0.23119
C         -3.63011        -8.07867         0.32420
C         -2.28382        -7.38026         0.40168
C         -1.25690        -7.94563        -0.64537
C          0.17895        -7.27308        -0.68258
C          1.39312        -8.10011        -0.27075
C          2.71193        -7.37685        -0.38237
C          3.97714        -8.15372        -0.63728
C          5.28168        -7.39943        -0.49586
C          6.48338        -8.11745         0.13503
C          7.42990        -7.14174         0.82037
C         -5.95403        -8.93126        -1.19542
C         -4.88343        -9.74141        -1.11051
C         -3.71177        -9.54125        -0.15810
C         -2.37771       -10.13789        -0.55866
C         -1.20579        -9.47643        -0.58064
C          0.09064       -10.24099        -0.87372
C          1.38272        -9.57631        -0.42565
C          2.53402       -10.25529        -0.19279
C          3.88375        -9.59536        -0.22140
C          4.99844       -10.08634         0.62798
C          6.08380        -9.34555         0.92539
O         -7.35831        -3.35673         2.86869
O         -3.09579         6.66618        -2.49587
O         -5.05001         7.91621        -1.45122
O         -5.89702         4.17497         1.49900
O          4.82877         3.69129        -1.73860
O          1.85271        -3.72092        -2.49426
O         -1.91492        -7.62987        -1.83669
O         -0.00591        -5.43243         1.30586
O          5.83314        -6.68709        -1.68710
O          0.16879         7.37319         0.34975
O          2.10872        -7.69495         0.92229
O         -4.99848         1.53501         1.65999
O         -3.68245         3.32861        -2.41410
O          6.06447        -2.75087         1.23687
O          8.89578        -1.25737        -0.73589
O         -1.51941         4.39764        -2.93443
O          4.65056         1.35321        -2.27529
O          3.65024         5.43289         1.03693
O          4.09122        -9.19552        -1.64223
O          1.88516        -0.99882        -2.71586
O          6.18096         0.67513         1.10691
O         -4.57618        -7.96511         1.43345
O         -4.25633        -5.57884         1.96811
O         -7.67808        -0.84851         2.83455
O         -2.24491        -0.66657         1.10946
O          6.15209         5.77400         1.98445
O          2.43105        -5.12402         0.65698
O         -3.69500        -3.14967         2.30187
O          5.38539        -5.25704         1.63898
O          4.73319        -1.16650        -2.56456
O          7.67474         2.93721         2.13124
O         -7.76482         1.69899         2.37383
O          0.73187         5.58853        -2.76039
O          0.30369         1.04221         0.07309
O         -1.89012        -6.88571         1.66896
O         -0.27576        -2.56789        -2.32943
O         -5.98747        -3.75154        -0.49166
O         -1.24458         8.30893        -2.97412
O          4.64867         8.05552        -1.19948
O          2.77608         6.81203        -2.07629
O         -3.82478         0.65110        -1.77427
O         -3.74628         5.36968         0.77603
O          9.12568         1.36436         1.90417
O          4.08131        -4.77738        -2.46511
O          1.50566         3.35607         0.16307
O         -1.66320        -0.39043        -2.48324
O         -7.82642         2.60313        -1.17554
O         -2.31692        -3.68156        -1.17841
O          7.28292        -8.65759        -0.95281
H          7.17095        -8.05012        -1.72051
O        -10.51938         1.52835         2.65656
H         -9.79712         1.73743         3.28858
O          9.64196        -5.59408         1.52365
H          9.97409        -5.59521         0.60270
O          6.22128        -3.40558        -2.28994
H          5.71357        -4.01644        -2.88165
O        -10.47520        -1.45630         2.80083
H         -9.76984        -1.68393         3.44588
O          5.17466         3.12387         1.82417
H          5.80684         3.18163         2.58098
O         -5.70188         7.69605         2.14928
H         -6.37892         8.08329         2.74045
O          0.43410        -6.99825        -2.07730
H         -0.45268        -7.08626        -2.53414
O          9.50944        -1.02245         2.90755
H          9.44568        -0.04428         3.01907
O          0.28006         2.64827        -3.19921
H         -0.06905         3.43308        -3.68758
O          2.75367         1.11609         0.67150
H          2.01394         1.54487         1.16244
O         -5.81198         2.33635        -1.72374
H         -5.74579         2.97275        -2.46925
O          0.12259         8.68038        -3.27104
H          0.48445         7.86754        -3.70793
O         -6.31999        -1.00400        -0.58444
H         -5.72537        -0.51623        -1.19493
O          6.98528         8.47960        -0.31203
H          6.39975         8.83182        -1.02317
O         -4.48730        -0.78126         2.54981
H         -3.78911        -1.33496         2.96678
O          2.57579         8.57062         1.83287
H          2.34373         9.26425         2.48491
O         -9.63662        -5.34941        -0.06504
H         -9.34781        -5.18342        -0.98608
O         -7.85340         7.86578        -0.82940
H         -7.09041         7.83752        -1.44801
O          7.11994        -0.40264        -2.23021
H          7.07232        -1.20641        -2.79149
O         -0.00193       -11.56577        -0.36234
H         -0.08395       -11.52094         0.61231
O         -3.16263         9.07967         1.37101
H         -3.23524         9.87053         1.94479
O         -4.07215       -10.36684         0.98582
H         -4.62419        -9.80388         1.58001
O         -5.67001        -6.69764        -1.91996
H         -4.89267        -7.09097        -2.37208
H         11.94446        -1.18695         1.08925
H         12.00555         1.10019         0.28612
H         10.63025         3.44060        -0.28285
H          9.42798         5.59491         0.04635
H          7.81678         7.17236         1.96625
H          6.49699         9.62116         2.10672
H          4.39137        10.74953         1.88894
H          2.32566        11.18170         0.15539
H         -0.06170        11.29267        -0.56921
H         -2.34901        11.25234        -0.18822
H         -4.96010        11.24991         0.00760
H         -6.98132        10.03796         0.69186
H         -8.17745         7.77754         1.20236
H         -9.55981         5.74467         0.72535
H        -10.73062         3.65298         1.32195
H        -11.51488         1.19866        -0.26689
H        -11.44220        -1.23220        -0.05908
H        -10.56742        -3.27628         0.64160
H         -8.82404        -5.43324         1.82219
H         -8.20038        -7.48266        -0.27463
H         -6.81074        -9.24735        -1.81270
H         -4.94322       -10.73607        -1.58080
H         -2.36480       -11.23837        -0.61866
H          0.16023       -10.33405        -1.99453
H          2.52438       -11.35706        -0.22602
H          4.82658       -11.02815         1.17248
H          6.82320        -9.73859         1.63959
H          8.36952        -7.58670         1.19012
H          8.04133        -4.93844         2.62929
H         10.44769        -3.38933         1.92916
