         620
 CSIRO Nanostructure Databank - Neutral Graphene Oxide Data Set
C         22.89937        27.47411         0.17893
C         22.87033        28.79138         0.56434
C         22.87532        31.69491         1.06661
C         22.88776        33.06828         1.23903
C         22.89642        36.01708         1.63765
C         22.91914        37.39505         1.60566
C         22.94165        40.32672         1.36516
C         22.95434        41.70077         1.23870
C         22.99411        44.61770         0.78702
C         23.03149        45.97836         0.53593
C         25.35477        24.78456        -0.71202
C         24.15836        25.45373        -0.52345
C         25.34790        27.34169         0.46726
C         24.13358        26.74351         0.05732
C         25.31158        28.68349         1.19203
C         24.04840        29.50112         0.94934
C         25.29316        31.60266         1.57117
C         24.04511        30.88666         1.18530
C         25.32252        33.09044         1.49849
C         24.08493        33.81244         1.42072
C         25.31205        35.97295         1.36736
C         24.09163        35.25840         1.49636
C         25.34934        37.39412         1.33917
C         24.12881        38.12526         1.44054
C         25.37953        40.26941         1.25803
C         24.14126        39.56750         1.36078
C         25.39016        41.69821         1.15326
C         24.16941        42.42519         1.11599
C         25.43481        44.54574         0.85791
C         24.18527        43.86295         0.93335
C         25.47449        45.95577         0.63465
C         24.26334        46.66850         0.44090
C         25.50601        48.72430         0.00976
C         24.31256        48.07025         0.13111
C         27.90105        23.36622        -1.03142
C         27.85892        24.68787        -0.54850
C         26.58731        25.36971        -0.33119
C         27.85226        27.26713         0.67587
C         26.56314        26.65690         0.26897
C         27.85562        28.73870         1.01521
C         26.55727        29.49111         0.77603
C         27.86555        31.60467         1.23111
C         26.60801        30.86571         1.40099
C         27.82871        33.04583         1.52782
C         26.53737        33.76059         1.44614
C         27.86452        35.97453         1.03746
C         26.53730        35.19725         1.13318
C         27.84102        37.42741         1.21467
C         26.60549        38.11714         1.25797
C         27.85897        40.25256         1.20641
C         26.61298        39.54457         1.25223
C         27.87086        41.67915         1.10958
C         26.64250        42.39745         1.06680
C         27.90834        44.50390         0.85564
C         26.65936        43.81249         0.94267
C         27.92613        45.93716         0.78652
C         26.73221        46.65532         0.61192
C         27.98317        48.72849         0.09834
C         26.75770        48.06182         0.26538
C         28.11924        49.92127        -0.70452
C         30.34301        23.37626        -1.10977
C         29.10492        22.72649        -1.29373
C         30.34408        24.71100        -0.61337
C         29.10299        25.35434        -0.30922
C         30.33093        27.38249         0.37864
C         29.12368        26.66874         0.24015
C         30.32589        28.78905         0.72632
C         29.11531        29.48749         0.90222
C         30.34096        31.61349         1.05337
C         29.08308        30.91871         1.01774
C         30.33739        33.10701         0.85958
C         29.11892        33.81204         1.40618
C         30.33569        35.96718         1.15767
C         29.12695        35.26804         1.20913
C         30.30535        37.38515         1.18050
C         29.08586        38.11197         1.27412
C         30.32536        40.27675         1.26905
C         29.09427        39.55356         1.27128
C         30.35524        41.65613         1.07066
C         29.11304        42.37911         0.98884
C         30.38230        44.51043         0.46002
C         29.11942        43.78180         0.84300
C         30.50403        45.89666         1.10014
C         29.18969        46.66145         0.99387
C         30.51238        48.77249         0.33378
C         29.21307        48.13787         0.64172
C         30.44483        50.26536         0.13724
C         29.28085        50.61221        -0.76810
C         32.82891        20.79145        -2.25215
C         31.62890        21.40259        -1.91194
C         32.83245        23.41533        -1.22771
C         31.60041        22.72112        -1.41887
C         32.82163        24.75472        -0.71376
C         31.58272        25.40341        -0.41018
C         32.81473        27.45577         0.22740
C         31.58042        26.74784         0.06470
C         32.81598        28.82911         0.62162
C         31.56716        29.49656         0.81329
C         32.80589        31.58107         1.40126
C         31.53741        30.90308         1.05061
C         32.81186        33.09265         1.55337
C         31.58644        33.83593         1.26643
C         32.85062        35.92078         1.34505
C         31.60830        35.22965         1.23275
C         32.87231        37.37500         1.17258
C         31.57232        38.12622         1.08691
C         32.86978        40.25366         1.29544
C         31.58682        39.53739         1.62655
C         32.86899        41.62854         1.04498
C         31.62498        42.36207         0.95580
C         32.87920        44.43171         0.51893
C         31.64844        43.73350         0.71393
C         32.88636        45.87703         0.31015
C         31.71609        46.61441         0.50291
C         32.93725        48.70121        -0.09519
C         31.69656        48.03727         0.26364
C         32.93056        50.12300        -0.30672
C         31.75487        50.87262        -0.30044
C         32.87707        52.87095        -1.17729
C         31.75110        52.23512        -0.73543
C         35.39300        19.38964        -2.82157
C         35.30103        20.83344        -2.59146
C         34.05051        21.46354        -2.10792
C         35.31749        23.44211        -1.26959
C         34.07168        22.77743        -1.56157
C         35.29179        24.75982        -0.71124
C         34.05042        25.43923        -0.49269
C         35.29349        27.47631         0.17396
C         34.05570        26.78901        -0.02142
C         35.29790        28.86261         0.53705
C         34.06184        29.54052         0.74668
C         35.29058        31.63898         1.25104
C         34.08451        30.91861         1.11711
C         35.30030        33.07363         1.48049
C         34.09444        33.79748         1.49744
C         35.31570        35.91637         1.69557
C         34.08627        35.22071         1.50004
C         35.27200        37.37329         1.90233
C         34.07879        38.12640         1.54216
C         35.36674        40.22757         1.34087
C         34.09686        39.52153         1.42376
C         35.35186        41.61252         0.89789
C         34.11258        42.30722         0.77115
C         35.26758        44.34029        -0.11335
C         34.07347        43.69440         0.44644
C         35.31995        45.80679        -0.21623
C         34.12785        46.54293        -0.03921
C         35.38041        48.61480        -0.58818
C         34.13972        47.96602        -0.22007
C         35.42500        50.01540        -0.78035
C         34.21900        50.80685        -0.50150
C         35.40973        52.82046        -1.60431
C         34.19386        52.28468        -0.95410
C         35.40993        54.11071        -2.15316
C         37.85248        19.45752        -2.81201
C         36.59415        18.78826        -3.03459
C         37.86489        20.75584        -2.27117
C         36.62521        21.54771        -2.27790
C         37.77923        23.31812        -1.01080
C         36.57118        22.79602        -1.50382
C         37.73076        24.60002        -0.30100
C         36.50401        25.40309        -0.34469
C         37.78400        27.47516         0.15096
C         36.52654        26.76646         0.03347
C         37.77026        28.89782         0.44356
C         36.53177        29.57064         0.69415
C         37.76157        31.66274         1.24258
C         36.53733        30.95726         1.05681
C         37.77030        33.08029         1.54095
C         36.53464        33.79202         1.58662
C         37.80647        35.92320         1.87251
C         36.54364        35.21411         1.76114
C         37.85013        37.34071         1.77843
C         36.60985        38.14195         1.90817
C         37.88983        40.27078         1.46600
C         36.56613        39.55185         1.51230
C         37.82427        41.59647         0.73279
C         36.58629        42.24043         0.56128
C         37.82953        44.30285        -0.23794
C         36.57129        43.55667        -0.10140
C         37.80040        45.69295        -0.54878
C         36.56247        46.43810        -0.51528
C         37.81523        48.51698        -1.01305
C         36.58498        47.85215        -0.71455
C         37.82806        49.91866        -1.28095
C         36.61926        50.67171        -1.18558
C         37.82875        52.68601        -1.99098
C         36.61226        52.06347        -1.57572
C         37.81604        54.02917        -2.47856
C         36.58818        54.70345        -2.59487
C         40.34163        16.94777        -4.09151
C         39.15286        17.54598        -3.76246
C         40.28387        19.31025        -2.46315
C         39.10127        18.75926        -2.98675
C         40.30523        20.61776        -1.87700
C         39.06841        21.34685        -1.78793
C         40.27897        23.31678        -0.93181
C         39.03619        22.65687        -1.21489
C         40.30743        24.67409        -0.52355
C         39.06603        25.33992        -0.08644
C         40.25347        27.52135        -0.20529
C         38.99524        26.79960        -0.03578
C         40.25146        29.01451         0.19127
C         38.97449        29.61480         0.58919
C         40.23448        31.59859         1.32939
C         38.99035        30.96202         1.04851
C         40.19764        32.95225         1.90703
C         38.98183        33.77273         1.77738
C         40.29527        35.91736         2.08956
C         39.04148        35.19673         1.92743
C         40.30501        37.34342         1.84451
C         39.07541        38.00464         1.57778
C         40.28401        40.12219         0.78924
C         38.98652        39.36821         0.89574
C         40.27171        41.47538         0.36809
C         39.02705        42.20636         0.29676
C         40.27682        44.24198        -0.42914
C         39.03809        43.58266        -0.12219
C         40.26625        45.62172        -0.78635
C         39.03184        46.36683        -0.81233
C         40.25099        48.45123        -1.40175
C         39.03700        47.77516        -1.06826
C         40.28659        49.84112        -1.63952
C         39.05965        50.57940        -1.59992
C         40.30494        52.65856        -2.08878
C         39.06146        51.96442        -1.90576
C         40.26583        54.05087        -2.42272
C         39.07046        54.69879        -2.75892
C         40.28725        56.61882        -3.71072
C         39.11932        55.95681        -3.46143
C         42.80447        16.87359        -3.90318
C         41.57510        17.43440        -3.56853
C         42.84666        19.12644        -2.10192
C         41.53187        18.53151        -2.58766
C         42.82685        20.46796        -1.36018
C         41.52714        21.25000        -1.51408
C         42.76170        23.32733        -1.00750
C         41.52239        22.61802        -1.14703
C         42.77307        24.70383        -0.67577
C         41.52966        25.39007        -0.44543
C         42.73314        27.50689        -0.00909
C         41.52825        26.78871        -0.17177
C         42.72350        28.88499         0.43172
C         41.50850        29.59940         0.65008
C         42.70770        31.59357         1.51929
C         41.47022        30.91955         1.20155
C         42.75385        32.92419         1.89411
C         41.49911        33.65918         2.17009
C         42.73117        35.64666         2.72131
C         41.51041        35.14205         2.28227
C         42.73483        37.84098         2.33008
C         41.51702        38.16949         1.73253
C         42.71574        40.14493         0.78104
C         41.49146        39.46055         1.06692
C         42.70308        41.41054         0.15211
C         41.49647        42.12414         0.00818
C         42.71875        44.19069        -0.68309
C         41.50200        43.51498        -0.40756
C         42.71772        45.57118        -0.98342
C         41.49969        46.26598        -1.08187
C         42.79134        48.40676        -1.78884
C         41.46720        47.65363        -1.58645
C         42.76562        49.86350        -1.76438
C         41.55002        50.55092        -1.79878
C         42.79430        52.72856        -2.00651
C         41.54153        51.99016        -1.93126
C         42.78022        54.10086        -2.24911
C         41.51165        54.81056        -2.39408
C         42.83782        56.76042        -3.44251
C         41.52168        56.22521        -3.04258
C         44.01630        17.46185        -3.50597
C         45.33065        19.32244        -2.53995
C         44.08848        18.62917        -2.73227
C         45.38940        20.56292        -1.65674
C         44.06555        21.30083        -1.60279
C         45.23260        23.42189        -1.26436
C         44.01028        22.65334        -1.30387
C         45.23203        24.74743        -0.80278
C         44.00561        25.42495        -0.54865
C         45.17962        27.58489        -0.15676
C         43.98429        26.82539        -0.19899
C         45.15622        28.93205         0.26902
C         43.95969        29.53829         0.69005
C         45.24943        31.51107         1.71653
C         43.93651        30.72715         1.64008
C         45.24741        32.97915         1.90259
C         44.00689        33.62222         2.08728
C         45.24008        35.63854         2.67927
C         43.99529        34.97163         2.53892
C         45.24145        37.83396         2.31522
C         43.98483        38.41302         1.94367
C         45.20662        40.10321         0.64207
C         43.97223        39.53857         1.08644
C         45.26433        41.35590         0.01947
C         43.97296        41.97396        -0.34315
C         45.28971        44.09996        -0.80257
C         43.98218        43.41978        -0.76257
C         45.23709        45.46356        -1.34367
C         44.04202        46.31208        -0.94799
C         45.25851        48.36815        -1.74416
C         44.06015        47.69842        -1.53441
C         45.29990        49.79123        -1.88213
C         44.06519        50.57846        -1.48771
C         45.25642        52.67807        -2.13971
C         44.06259        52.02509        -1.92679
C         45.33714        54.14805        -2.16790
C         44.00829        54.91588        -2.26289
C         43.97920        56.21273        -2.98077
C         47.76773        19.42628        -2.71322
C         46.53771        18.79499        -2.98344
C         47.85302        20.74094        -2.25023
C         46.59987        21.44351        -1.96693
C         47.53629        23.75526        -1.94844
C         46.45536        22.81239        -1.74248
C         47.68675        24.91702        -1.27347
C         46.54023        25.43924        -0.45778
C         47.72689        27.72096        -0.73051
C         46.43944        26.94651        -0.62294
C         47.70106        29.12421        -0.19048
C         46.41367        29.71314         0.29159
C         47.72058        31.74730         1.07444
C         46.50456        30.90848         1.18232
C         47.70184        33.09013         1.50263
C         46.45609        33.72706         1.85539
C         47.66261        35.93219         1.96865
C         46.45350        35.12543         2.16706
C         47.64794        37.34610         1.75218
C         46.42657        38.12149         1.64945
C         47.75700        40.02659         0.51033
C         46.41447        39.29169         0.76326
C         47.72286        41.45397         0.20452
C         46.50425        42.05353        -0.17589
C         47.76992        44.16064        -0.73791
C         46.50066        43.44741        -0.60923
C         47.79725        45.48264        -1.22189
C         46.53756        46.13606        -1.63864
C         47.82296        48.34058        -1.94472
C         46.52134        47.60667        -1.91662
C         47.78151        49.81128        -1.98264
C         46.52415        50.46357        -2.06018
C         47.80194        52.62677        -2.61316
C         46.49596        51.90440        -2.39829
C         47.77236        54.11058        -2.61750
C         46.62268        54.79559        -2.51104
C         50.27356        20.48129        -1.46379
C         49.19841        21.26442        -1.96019
C         50.43210        23.30541        -1.27095
C         49.44543        22.65168        -2.01172
C         50.17366        24.67561        -0.64437
C         49.04737        25.55412        -1.21063
C         50.26453        27.56137        -0.18318
C         49.06388        27.00713        -0.82550
C         50.19196        28.87570         0.47688
C         48.90860        29.64282         0.52189
C         50.16142        31.74165         1.08528
C         48.93814        31.08950         0.83589
C         50.16286        33.13266         1.39931
C         48.92830        33.81786         1.58024
C         50.14076        35.95688         1.73288
C         48.90618        35.23934         1.78613
C         50.12911        37.37673         1.67336
C         48.88573        38.04820         1.50630
C         50.12677        40.17629         1.19298
C         48.93510        39.41859         1.11811
C         50.13702        41.56614         0.75523
C         48.95541        42.19043         0.27575
C         50.22399        44.20961        -0.31062
C         48.99615        43.53328        -0.25109
C         50.31080        45.49894        -1.10034
C         49.01186        46.25423        -1.23321
C         50.25115        48.40775        -1.40232
C         49.05193        47.62278        -1.53089
C         50.23836        49.80685        -1.64497
C         49.01853        50.51416        -1.98658
C         50.27463        52.59893        -2.21062
C         49.05205        51.90794        -2.26682
C         51.43764        21.08894        -1.01234
C         52.67689        23.15017        -0.25531
C         51.53200        22.50475        -0.82081
C         52.58726        24.58475         0.09201
C         51.45712        25.41102        -0.36981
C         52.69064        27.45059         0.33067
C         51.45094        26.78870        -0.07886
C         52.68033        28.93556         0.37373
C         51.42291        29.64846         0.68018
C         52.64479        31.70938         1.33161
C         51.39515        30.98726         0.99960
C         52.64066        33.17752         1.38269
C         51.40945        33.85801         1.49267
C         52.62872        35.99956         1.67818
C         51.39548        35.27316         1.64323
C         52.60418        37.42633         1.79539
C         51.35020        38.12130         1.70140
C         52.53248        40.34709         1.93947
C         51.32175        39.52998         1.59029
C         52.58446        41.67816         1.21883
C         51.38142        42.28264         0.74562
C         52.66838        44.30920         0.19510
C         51.42118        43.60772         0.20083
C         52.71024        45.68078        -0.36959
C         51.46897        46.38139        -0.70766
C         52.64160        48.56695        -0.67403
C         51.47048        47.74727        -0.96979
C         52.61923        49.97257        -0.95166
C         51.44779        50.57692        -1.49246
C         51.43667        51.95568        -1.82472
C         55.06462        23.11313         0.40063
C         53.92289        22.49108        -0.02663
C         55.13923        24.54440         0.86824
C         53.81841        25.28769         0.64083
C         55.14407        27.42572         1.03792
C         53.85234        26.76475         0.56540
C         55.21296        28.89998         0.75529
C         53.96070        29.64440         0.58369
C         55.18509        31.80084         0.93718
C         53.95520        31.01888         1.14535
C         55.11432        33.18790         1.08288
C         53.87363        33.87524         1.35781
C         55.11348        35.99822         1.58729
C         53.86843        35.29393         1.51839
C         55.07881        37.40262         2.03734
C         53.81818        38.17538         1.90721
C         55.04534        40.34625         1.97710
C         53.83213        39.57347         1.88289
C         55.01593        41.72234         1.70031
C         53.80691        42.37513         1.20878
C         55.06881        44.51661         0.85365
C         53.83967        43.73289         0.72486
C         55.06104        45.93198         0.66458
C         53.91930        46.55454        -0.02146
C         54.80865        48.85953         0.52727
C         53.76209        48.00256        -0.05349
C         54.80933        50.26100         0.10636
C         53.77849        50.76042        -0.62564
C         57.57832        24.66298         0.06105
C         56.37375        25.32486         0.41471
C         57.60165        27.45891         0.43834
C         56.38665        26.71442         0.55806
C         57.64513        28.88252         0.63831
C         56.39205        29.60794         0.74119
C         57.63351        31.74700         0.73143
C         56.40164        31.07199         0.72507
C         57.65562        33.21904         0.69416
C         56.32118        33.98690         0.86023
C         57.60507        36.07399         1.41750
C         56.34104        35.37811         1.34369
C         57.62976        37.47134         1.69910
C         56.37860        38.14073         2.12735
C         57.64140        40.37657         2.17659
C         56.32923        39.63920         2.26062
C         57.59579        41.86776         2.03881
C         56.23942        42.53984         1.82384
C         57.47509        44.65961         1.36336
C         56.25609        43.91737         1.30289
C         57.43375        46.07550         1.21446
C         56.18424        46.70994         0.96729
C         57.37103        48.93133         1.07778
C         56.10362        48.18501         1.03079
C         58.76232        25.36348        -0.07448
C         60.03711        27.49437         0.12417
C         58.81098        26.76482         0.15020
C         60.06639        28.84736         0.37837
C         58.86683        29.58015         0.62510
C         60.04513        31.76781         1.03852
C         58.87253        31.03419         0.80054
C         60.03996        33.16485         1.21894
C         58.88626        33.93207         1.05055
C         60.04281        36.11824         1.21722
C         58.84091        35.37128         1.21237
C         60.03914        37.49217         1.36129
C         58.83680        38.20406         1.60104
C         59.91780        40.40757         1.24405
C         58.84845        39.66040         1.69347
C         59.91258        41.83316         1.21407
C         58.80610        42.57008         1.57888
C         59.91761        44.79695         1.53057
C         58.74939        44.01906         1.51255
C         59.86333        46.18931         1.43429
C         58.63513        46.84557         1.27844
C         58.55945        48.28639         1.17215
O         38.39426        24.63252         1.00498
O         32.30748        37.86839        -0.13832
O         46.99221        30.07576        -1.02371
O         29.08582        47.67591         2.04923
O         43.90026        42.34047        -1.76844
O         55.07374        48.65689         1.96778
O         44.74527        54.82976        -1.00305
O         32.72314        32.18997         2.73831
O         45.74087        45.48315        -2.70652
O         40.75667        33.02697         3.27954
O         56.94370        33.80065        -0.45128
O         52.80166        24.78980         1.57542
O         49.37274        26.52337        -2.21657
O         46.89562        27.49704        -1.89872
O         53.39858        29.55250        -0.78454
O         25.99913        31.02534         2.71913
O         34.44170        51.90474         0.44124
O         40.24679        28.58050        -1.21722
O         56.90102        42.49905         3.14392
O         47.04864        52.09539        -3.76311
O         42.14792        18.11521        -1.29776
O         55.77124        37.54044         3.33228
O         46.17029        30.75789         2.60305
O         35.74158        43.63063        -1.31625
O         41.41265        56.04154        -1.60208
O         27.14846        35.49751        -0.17787
O         53.76551        45.91840        -1.35587
O         57.08480        39.98832         3.47073
O         53.37222        31.10868         2.48408
O         35.99192        21.64133        -3.59927
O         49.28038        28.81572         1.67648
O         48.57183        23.39214        -2.81018
O         42.05595        47.80327        -2.92231
O         42.75462        36.89083         3.35764
O         45.25903        36.87510         3.34166
O         28.65796        33.41492         2.72874
O         35.89787        37.82995         3.14986
O         47.13620        39.15315        -0.48954
O         27.86225        27.74079         2.08442
O         47.19697        47.83732        -3.19959
O         55.28876        24.48600         2.33194
H         54.41319        24.19344         2.67808
O         25.33218        28.41653         2.60746
H         26.21222        28.02281         2.82615
O         38.56794        39.06628        -0.47076
H         39.32491        38.66098        -0.94314
O         43.74871        30.08673         2.94236
H         44.65041        29.90123         3.29814
O         30.29796        44.75540        -0.97821
H         30.28503        43.88741        -1.43363
O         31.55606        39.36454         3.08541
H         31.52419        40.25520         3.49426
O         30.21607        33.28458        -0.60181
H         31.05789        33.00385        -1.01841
O         55.12855        27.28806         2.49648
H         55.25100        26.32284         2.69401
O         44.15155        50.64600        -0.00345
H         43.55320        51.36587         0.29272
O         44.28665        46.52434         0.49783
H         43.61582        47.15600         0.83468
O         42.88856        20.12701         0.07577
H         42.37750        19.28513         0.16860
O         45.61346        20.06436        -0.28978
H         44.72055        19.93803         0.12375
O         30.77698        45.70380         2.50598
H         30.44570        46.50789         2.96833
O         49.61332        24.32674         0.69014
H         50.35564        24.02755         1.26107
O         46.81296        25.19356         0.95584
H         47.70293        24.77287         1.03794
O         26.45280        29.68787        -0.66098
H         27.18249        30.27688        -0.94849
O         52.35212        40.69458         3.36813
H         53.20886        41.04645         3.69438
O         38.26270        40.55274         2.84632
H         37.47736        40.90614         3.31378
O         50.64143        45.05281        -2.47017
H         50.62298        45.84225        -3.05270
O         30.12314        50.86006         1.44212
H         30.85322        50.63655         2.05725
H         21.96683        26.97278        -0.11884
H         21.90452        29.31622         0.54834
H         21.91071        31.21567         0.85059
H         21.93232        33.60515         1.16051
H         21.93502        35.50445         1.77677
H         21.96811        37.93265         1.71625
H         21.97103        39.82092         1.45193
H         21.99451        42.23412         1.23434
H         22.01663        44.12045         0.84422
H         22.09363        46.53588         0.39916
H         25.33444        23.79246        -1.18168
H         23.21359        24.98872        -0.83995
H         25.51419        49.79622        -0.23184
H         23.36663        48.60917        -0.02449
H         26.97050        22.81060        -1.20544
H         27.26592        50.24079        -1.32130
H         29.06973        21.69398        -1.66423
H         29.35664        51.48265        -1.43525
H         32.80349        19.77701        -2.67143
H         30.69831        20.84101        -2.06151
H         32.78716        53.83787        -1.69101
H         30.78599        52.75455        -0.81414
H         34.47978        18.77879        -2.81701
H         34.47942        54.69245        -2.19258
H         36.60594        17.71077        -3.24890
H         36.55448        55.73354        -2.97304
H         40.35684        16.07470        -4.75979
H         38.22294        17.14087        -4.18201
H         40.31326        57.45620        -4.42331
H         38.19673        56.32753        -3.92995
H         42.83111        15.99638        -4.56559
H         42.86727        57.66485        -4.06900
H         44.93880        17.01856        -3.90302
H         44.93932        56.69012        -3.22272
H         48.69246        18.88832        -2.96545
H         46.56846        17.83754        -3.52098
H         48.70818        54.66342        -2.77965
H         46.64798        55.89445        -2.52105
H         50.18896        19.38565        -1.42875
H         50.32303        53.66544        -2.46474
H         52.26603        20.44981        -0.67692
H         52.36108        52.54399        -1.78096
H         55.96051        22.49483         0.55525
H         53.98632        21.41864        -0.26452
H         55.62523        50.92093         0.42981
H         53.80977        51.82163        -0.90333
H         57.58156        23.57348        -0.07951
H         57.33975        50.02948         1.07381
H         59.69084        24.82810        -0.32038
H         60.97144        26.95535        -0.09004
H         61.02945        29.37603         0.35244
H         61.00279        31.24055         1.14819
H         60.98728        33.65027         1.49262
H         61.00132        35.60557         1.06035
H         60.99674        38.02822         1.33138
H         60.81457        39.90465         0.85811
H         60.81301        42.34357         0.84500
H         60.89336        44.30552         1.64777
H         60.79114        46.77747         1.47414
H         59.49697        48.86008         1.21483
