         324
 CSIRO Nanostructure Databank - Neutral Graphene Oxide Data Set
C          1.12635         3.80900        -1.16751
C         -0.08728         4.50908        -0.99060
C          1.05799         6.17100         0.49440
C         -0.14038         5.67736        -0.27294
C          1.03894         7.68225         0.69829
C         -0.13002         8.23865         1.40087
C          1.21225        10.13381         2.14750
C         -0.02250         9.39305         2.10459
C          1.20575        12.36655         2.11721
C         -0.01297        13.03811         1.96332
C          1.14597        14.82201         0.80294
C         -0.05196        14.23720         1.26613
C          1.12623        16.22816         0.38008
C         -0.00568        16.95399         0.07357
C          1.16859        19.11354        -0.22872
C          0.01672        18.35733        -0.22616
C          1.21022        20.55723        -0.53756
C          0.19172        21.37897        -0.10993
C          0.79021        23.65519        -0.96448
C          0.12898        22.83283        -0.10625
C          1.00601        25.13391        -0.91811
C         -0.12173        25.99656        -1.32530
C          1.38739        27.89676        -1.66761
C          0.07538        27.29004        -1.67129
C          1.50216        29.27955        -1.94114
C          3.58503         3.74980        -1.02402
C          2.35707         4.38717        -0.75202
C          3.57924         6.29292         0.19466
C          2.36192         5.65507        -0.07764
C          3.58488         7.60354         0.88666
C          2.34209         8.43002         0.83557
C          3.60039        10.56443         1.48247
C          2.37536         9.75818         1.51187
C          3.63357        11.96332         1.47081
C          2.40442        12.79248         1.50309
C          3.64777        14.72203         0.56657
C          2.36303        14.09471         0.93407
C          3.67529        16.21766         0.36751
C          2.39469        16.96592         0.50823
C          3.73459        19.04461        -0.07535
C          2.42022        18.44896         0.19329
C          3.77844        20.34191        -0.76310
C          2.50270        21.06950        -1.08267
C          3.65517        23.32498        -0.87421
C          2.64910        22.52465        -1.33206
C          3.68463        24.81314        -1.15020
C          2.42420        25.67115        -1.07848
C          3.79842        27.77353        -1.35991
C          2.55882        27.12253        -1.42145
C          3.89628        29.18279        -1.55926
C          2.72830        29.91535        -1.89086
C          6.03368         3.66869        -0.90276
C          4.81486         4.34914        -0.67600
C          6.06857         6.35097         0.11464
C          4.81974         5.66270        -0.09185
C          6.09540         7.66166         0.62329
C          4.88861         8.30476         1.18079
C          6.20300        10.53090         1.47868
C          4.88865         9.79247         1.49317
C          6.18574        12.00420         1.30023
C          4.90808        12.68939         1.30488
C          6.10531        14.86728         1.10731
C          4.88952        14.05492         1.00038
C          6.12743        16.30645         0.76085
C          4.93436        16.97629         0.53673
C          6.16006        19.13244         0.32590
C          4.91468        18.38814         0.25059
C          6.16161        20.49500         0.04915
C          5.03955        21.14168        -0.65299
C          6.12599        23.42468        -0.13155
C          4.97333        22.66240        -0.65007
C          5.89942        24.89306         0.14566
C          4.99169        25.54128        -0.92174
C          6.08815        27.82408        -0.33272
C          5.11601        27.04305        -1.20009
C          6.24747        29.23128        -0.78484
C          5.14444        29.85810        -1.37855
C          8.47049         3.55365        -0.85336
C          7.28351         4.25301        -0.59026
C          8.53887         6.29732        -0.04808
C          7.31281         5.64726        -0.15952
C          8.57307         7.76035         0.01120
C          7.29054         8.47857         0.42073
C          8.64128        10.57823         0.62931
C          7.51104         9.75723         1.22607
C          8.59497        11.95464         0.64342
C          7.38552        12.66171         1.00929
C          8.66248        14.87644         0.70850
C          7.45055        14.12307         1.10125
C          8.62904        16.30918         0.71882
C          7.38679        17.00972         0.74590
C          8.61576        19.13679         0.62609
C          7.38898        18.43291         0.62217
C          8.60398        20.59924         0.72513
C          7.29032        21.32345         0.43672
C          8.54356        23.50244         0.33263
C          7.29351        22.77909         0.17873
C          8.51520        24.91247         0.29628
C          7.22601        25.64068         0.62833
C          8.55911        27.87603         0.40365
C          7.25718        27.14703         0.31806
C          8.60392        29.28935         0.05755
C          7.44356        29.90109        -0.50755
C         11.03148         3.42528        -0.78803
C          9.75789         4.04097        -0.39799
C         11.10360         6.22891         0.00274
C          9.78300         5.52058         0.07503
C         11.11573         7.72113         0.10020
C          9.84744         8.48376         0.20175
C         11.18364        10.58594         0.28636
C          9.86042         9.85033         0.32182
C         11.05384        12.03371        -0.12286
C          9.76662        12.73933         0.15655
C         11.08191        14.89394         0.24205
C          9.83057        14.20036         0.37184
C         11.08654        16.31648         0.38406
C          9.85869        17.01988         0.55531
C         11.08286        19.18531         0.56405
C          9.85555        18.45098         0.57601
C         11.04271        20.62849         0.59284
C          9.85212        21.35364         0.55996
C         10.97931        23.55250         0.25600
C          9.78755        22.79836         0.40514
C         10.95354        24.95876         0.19854
C          9.71824        25.64626         0.31904
C         10.98588        27.67567         0.86773
C          9.72632        27.09135         0.53032
C         11.02963        29.75753         0.54673
C          9.78738        30.08338        -0.02944
C         13.49846         3.43560        -0.93920
C         12.24703         4.12374        -0.77069
C         13.47414         6.28529        -0.81734
C         12.27869         5.54433        -0.57048
C         13.48876         7.69060        -0.79490
C         12.24725         8.42988        -0.56463
C         13.46850        10.70920        -1.03037
C         12.21463         9.91505        -0.62210
C         13.51740        12.10510        -0.44832
C         12.33899        12.78208        -0.16343
C         13.55048        14.91770        -0.04003
C         12.31549        14.20234         0.02819
C         13.54989        16.34038         0.12526
C         12.31899        17.04182         0.31791
C         13.57008        19.15621         0.40384
C         12.31719        18.46642         0.45732
C         13.59228        20.61024         0.67171
C         12.30342        21.37923         0.72484
C         13.53139        23.54011         0.00110
C         12.27462        22.85660         0.43718
C         13.53459        25.03547        -0.00561
C         12.21144        25.74528         0.05648
C         13.46168        27.88652         0.53039
C         12.24259        27.14385         0.52752
C         13.49473        29.33746         0.43580
C         12.32612        30.14101         0.18328
C         15.96371         3.40691        -0.77306
C         14.71822         4.10648        -0.86366
C         15.92972         6.25154        -0.88875
C         14.72818         5.56224        -0.91043
C         16.00379         7.68182        -1.21095
C         14.69320         8.46408        -1.11642
C         15.98880        10.60010        -0.81172
C         14.74900         9.91541        -0.84922
C         15.97086        12.06198        -0.70593
C         14.78296        12.79114        -0.49916
C         15.99027        14.97426        -0.32899
C         14.78085        14.23163        -0.29445
C         16.01777        16.37109        -0.12212
C         14.78218        17.05878         0.06374
C         16.03676        19.20667        -0.10616
C         14.76764        18.48167         0.17250
C         16.07727        20.69248        -0.03311
C         14.84723        21.36546         0.46913
C         16.04501        23.54888         0.61191
C         14.81562        22.81605         0.13582
C         16.02728        25.00985         0.22734
C         14.75147        25.75793         0.36384
C         15.97197        27.87058         0.54627
C         14.73075        27.16625         0.47119
C         15.98749        29.28715         0.45272
C         14.74856        29.97739         0.34002
C         18.38304         3.42534        -0.20852
C         17.14968         4.07894        -0.47195
C         18.38757         6.31964        -0.12151
C         17.10833         5.54973        -0.35557
C         18.47751         7.74638        -0.48498
C         17.34623         8.42251        -1.24780
C         18.50092        10.63475        -0.92518
C         17.22647         9.90774        -0.92382
C         18.51989        12.08378        -0.70358
C         17.23935        12.79454        -0.87877
C         18.52918        14.96050        -0.34717
C         17.25066        14.30023        -0.67959
C         18.53285        16.36665        -0.13861
C         17.28921        17.09131        -0.10702
C         18.54831        19.23134         0.05157
C         17.32056        18.48746        -0.03940
C         18.57235        20.67610         0.14780
C         17.35227        21.43080         0.15690
C         18.57514        23.54312         0.43911
C         17.34343        22.81256         0.32913
C         18.57815        24.97056         0.51966
C         17.31460        25.73170         0.33178
C         18.52576        27.88391         0.54028
C         17.25838        27.14277         0.86595
C         18.47898        29.29931         0.39623
C         17.22728        29.98142         0.40769
C         19.55852         4.12950         0.04296
C         20.83718         6.26028         0.16626
C         19.62678         5.53857         0.02231
C         20.85138         7.63959         0.08989
C         19.68920         8.38572        -0.31022
C         20.88503        10.63839        -0.00189
C         19.81379         9.84382        -0.60312
C         20.86611        11.99783        -0.03215
C         19.70120        12.75880        -0.43085
C         20.94317        14.93129        -0.15211
C         19.72550        14.22090        -0.31877
C         20.96342        16.30602        -0.02365
C         19.76598        17.06746        -0.00604
C         20.98641        19.24221         0.25036
C         19.77367        18.51105         0.10254
C         21.00088        20.61559         0.35437
C         19.79887        21.37738         0.31329
C         21.00174        23.57880         0.57257
C         19.80617        22.82343         0.43857
C         20.98783        24.96093         0.64777
C         19.77494        25.69803         0.58580
C         20.93436        27.91711         0.30517
C         19.74858        27.17697         0.49822
C         20.90168        29.31166         0.17691
C         19.69920        30.00463         0.21725
O          7.72562         8.47452        -0.96936
O         10.15311        12.32286        -1.22193
O         17.23529        13.71667        -2.03135
O          1.60460         8.42236        -0.43194
O          5.40237        21.87829        -1.84893
O          3.69866        15.31225        -0.79033
O         14.24181        23.02622        -1.18375
O         16.73796        25.44691        -0.98447
O         11.45378         6.93879         1.28132
O          6.85873        14.61821         2.34321
O          3.16763        20.24913        -2.10248
O          1.54236        23.07811        -2.00006
O         17.43002         6.05923         1.00056
O          2.38183        17.93508         1.59528
O          9.73375         4.45653         1.03770
O          4.69229        24.93880        -2.22020
O          1.21531        11.26077         2.98350
O         10.95439        28.83831         1.62877
O         19.46638        10.21258        -1.95351
O          1.77780        25.54798         0.25320
O          7.22001        25.57571         2.08615
O         11.68031         9.17032        -1.74990
O         14.48457        20.97497         1.82367
O          4.18412         7.53841         2.21946
O         15.92096        20.05425        -1.33560
O         15.25850         8.02820        -2.42731
O          7.74758        21.07709         1.81833
O         12.88633        25.56284        -1.23282
O         12.33250        22.35213         1.82207
O          8.01488         9.31549         2.51351
O         17.25022        26.96446         2.33004
H         17.27596        27.85601         2.73763
O          0.94458         5.61488         1.85052
H          0.97253         4.63773         1.77270
O         17.78344         8.33162        -2.63805
H         17.00178         8.56158        -3.19202
O          5.00247        24.87055         1.28928
H          5.57673        24.77980         2.08976
O          6.13121        27.73201         1.11391
H          6.80606        26.40850         2.41011
O          5.61162        10.09481         2.75131
H          7.25303         9.33985         3.14315
O          5.78557        27.15334        -2.49629
H          5.37732        26.47603        -3.08548
O         13.38594        10.93079        -2.46764
H         12.87651        10.17240        -2.84206
O         11.74358        10.59630         1.62764
H         11.50644         9.75698         2.07701
O         15.90972        23.57803         2.06674
H         15.60806        22.69440         2.37799
H          1.13737         2.85352        -1.70952
H         -1.00320         4.11125        -1.45184
H         -1.09943         6.19972        -0.14675
H         -1.04909         7.63810         1.45996
H         -0.87033         9.77740         2.68799
H         -0.91699        12.63084         2.43375
H         -1.00231        14.77853         1.17178
H         -0.97930        16.44754         0.00732
H         -0.93543        18.82860        -0.51035
H         -0.64228        20.88696         0.41637
H         -0.50912        23.28672         0.66583
H         -1.12223        25.54464        -1.38486
H         -0.77837        27.91618        -1.97004
H          0.59117        29.85325        -2.16458
H          3.58569         2.76452        -1.51327
H          2.80287        30.99706        -2.07113
H          6.00749         2.64797        -1.31227
H          5.20489        30.92838        -1.62743
H          8.42563         2.60769        -1.41293
H          7.52969        30.95220        -0.82323
H         11.02565         2.36659        -1.08577
H          9.73505        30.97930        -0.66647
H         13.48785         2.33655        -0.99069
H         12.46492        31.06106        -0.40419
H         15.96244         2.30812        -0.83358
H         14.77033        31.06921         0.20453
H         18.40829         2.32597        -0.22031
H         17.21991        31.07683         0.30792
H         20.48623         3.56659         0.22449
H         21.77198         5.71152         0.35150
H         21.80630         8.16665         0.21768
H         21.71814        10.12556         0.49919
H         21.72117        12.53769         0.39675
H         21.89981        14.39273        -0.16637
H         21.93640        16.80742         0.06183
H         21.94418        18.70681         0.29192
H         21.96713        21.12309         0.47647
H         21.97316        23.06652         0.60011
H         21.94710        25.48950         0.73560
H         21.90398        27.40471         0.24671
H         21.84296        29.86030         0.03235
H         19.68099        31.09780         0.10359
