         421
 CSIRO Nanostructure Databank - Neutral Graphene Oxide Data Set
C          2.81786         3.51755         3.34290
C          2.19378         4.22736         4.30610
C          1.77999         6.07150         2.77156
C          1.51927         5.46136         3.96827
C          1.11894         8.06775         1.50356
C         -0.09753         8.68091         1.11983
C          1.12018        10.61787         0.33838
C         -0.09153         9.92501         0.51708
C          1.09264        12.05196         0.05434
C         -0.12425        12.79362         0.09196
C          1.05038        14.89374        -0.32314
C         -0.14293        14.15978        -0.09511
C          1.04844        16.32510        -0.51880
C         -0.14745        17.09845        -0.46797
C          1.08134        19.18321        -0.82554
C         -0.13209        18.46922        -0.60695
C          1.14196        20.61016        -0.98255
C         -0.06113        21.37202        -1.01784
C          1.18832        23.45681        -1.12890
C         -0.04316        22.73955        -1.10751
C          1.20946        24.88175        -1.17551
C         -0.01320        25.65955        -1.34300
C          1.19251        27.73070        -0.72805
C         -0.04476        26.99981        -1.19260
C          1.17194        29.22826        -0.94930
C          0.01970        29.93184        -0.74243
C          1.17255        32.09874        -0.68997
C         -0.00443        31.35747        -0.71756
C          1.15701        33.53515        -0.44740
C         -0.04174        34.27951        -0.41049
C          1.16988        36.34612         0.01891
C         -0.03896        35.65080        -0.18146
C          1.19699        37.76465         0.24532
C          4.02526         3.42919         1.22441
C          2.83792         4.01380         1.90076
C          3.66370         6.31945         1.14791
C          2.80334         5.53797         1.85542
C          3.67091         7.85277         1.39159
C          2.36063         8.58110         1.09312
C          3.58540        10.62892         0.36559
C          2.36303         9.92415         0.56904
C          3.55671        11.96458        -0.34864
C          2.28534        12.75160        -0.16961
C          3.50852        14.86317        -0.58184
C          2.28008        14.16433        -0.36156
C          3.50531        16.26961        -0.73048
C          2.27376        17.00955        -0.74724
C          3.51162        19.11972        -1.19769
C          2.28779        18.43725        -0.90676
C          3.63201        20.55282        -1.13998
C          2.39894        21.29282        -1.06447
C          3.66164        23.43403        -1.04993
C          2.41637        22.72698        -1.08425
C          3.67515        24.86260        -1.12228
C          2.44424        25.55897        -1.16271
C          3.72105        27.78982        -1.28439
C          2.41914        27.03513        -1.28573
C          3.70552        29.23148        -0.99968
C          2.43539        29.98888        -1.32066
C          3.63925        32.07185        -0.58534
C          2.43619        31.41169        -0.80647
C          3.63558        33.50013        -0.31120
C          2.39198        34.21338        -0.24869
C          3.63113        36.30900         0.17989
C          2.39780        35.62067        -0.01474
C          3.63744        37.73656         0.37698
C          2.37873        38.43189         0.41236
C          6.10414         3.56119         0.02429
C          4.97283         4.18859         0.56579
C          6.06071         6.40062         0.31827
C          4.73574         5.66733         0.26415
C          6.05044         7.81851         0.58455
C          4.87609         8.53552         0.77275
C          6.03469        10.68600         0.28857
C          4.84891         9.97376         0.53539
C          6.05555        12.19148         0.31077
C          4.79265        12.81366        -0.20613
C          6.02923        14.86068        -0.96561
C          4.76609        14.13954        -0.52764
C          6.02658        16.31651        -0.49983
C          4.73224        16.96682        -0.97869
C          6.44188        19.34327        -1.09688
C          4.62660        18.26581        -1.44571
C          6.15228        20.62693        -0.69004
C          4.88405        21.27875        -0.97460
C          6.12002        23.43494        -0.70222
C          4.87497        22.69682        -0.88099
C          6.12691        24.84533        -0.93021
C          4.93639        25.58637        -1.11599
C          6.14466        27.75953        -0.87873
C          4.96827        27.02359        -1.12823
C          6.13585        29.16462        -0.62103
C          4.88604        29.89471        -0.68969
C          6.10550        31.99944        -0.32216
C          4.89777        31.33950        -0.54433
C          6.15824        33.50928        -0.40539
C          4.83840        34.19285        -0.13274
C          6.09846        36.29369         0.33008
C          4.84844        35.58804         0.14163
C          6.09328        37.73333         0.46772
C          4.84896        38.41996         0.49871
C          8.47374         3.60580        -0.52602
C          7.18041         4.35892        -0.64048
C          8.52491         6.36271         0.13410
C          7.22572         5.74222        -0.02381
C          8.58646         7.79780         0.26371
C          7.34154         8.52775         0.56173
C          8.55272        10.71309        -0.02991
C          7.32904        10.02806         0.43724
C          8.55847        12.06758        -0.24634
C          7.31796        12.83978        -0.23032
C          8.58140        14.87583        -1.02683
C          7.31422        14.13463        -0.64657
C          8.57275        16.31839        -0.53055
C          7.36116        17.06017        -0.62676
C          8.52376        19.14555         0.14258
C          7.41198        18.47087        -0.50648
C          8.55256        20.62134         0.07678
C          7.21651        21.34226         0.11016
C          8.57695        23.45393        -0.24776
C          7.31599        22.77920        -0.33802
C          8.63793        24.84149        -0.54015
C          7.42418        25.52600        -0.98730
C          8.65522        27.75301        -0.51452
C          7.43572        27.07322        -0.96511
C          8.60679        29.15195        -0.27567
C          7.35491        29.86225        -0.35507
C          8.56494        31.99250         0.07251
C          7.33670        31.28251        -0.18003
C          8.57135        33.40106         0.24719
C          7.25216        34.08619         0.48571
C          8.54951        36.28101         0.44399
C          7.30283        35.59152         0.39038
C          8.55085        37.73206         0.56480
C          7.31466        38.41567         0.60470
C         10.90721         3.46696        -0.16146
C          9.67914         4.20098        -0.16754
C         10.95247         6.33325         0.54391
C          9.69753         5.62739         0.09298
C         11.01850         7.76088         0.00975
C          9.77323         8.47228         0.03088
C         11.03840        10.60929        -0.36720
C          9.72990         9.88786        -0.47919
C         11.04796        12.02154        -0.43617
C          9.81637        12.76073        -0.49412
C         11.07876        14.85205        -0.57894
C          9.84235        14.14247        -0.65011
C         11.07144        16.28604        -0.44355
C          9.81051        16.95873        -0.32072
C         11.08951        19.09274         0.14918
C          9.84544        18.33692         0.17446
C         11.02358        20.54770         0.37917
C          9.75217        21.29990         0.16613
C         11.04714        23.42840        -0.09785
C          9.79221        22.73693         0.01865
C         11.06518        24.86077        -0.23868
C          9.85408        25.57027        -0.43053
C         11.08369        27.71852        -0.17694
C          9.85737        27.01833        -0.41975
C         11.04105        29.12461         0.04905
C          9.82650        29.84683         0.01146
C         11.00657        32.01695         0.33136
C          9.80859        31.28493         0.15817
C         11.02749        33.43304         0.31517
C          9.77117        34.13635         0.30294
C         11.03391        36.32610         0.12304
C          9.75566        35.56851         0.36884
C         11.01549        37.74562         0.64406
C          9.77345        38.41424         0.73291
C         13.37394         3.38468        -0.17917
C         12.16649         4.08299        -0.00698
C         13.50536         6.25444        -0.03346
C         12.23162         5.52946         0.32690
C         13.48634         7.71913        -0.28460
C         12.21559         8.42685        -0.23762
C         13.45721        10.57665        -0.61935
C         12.23362         9.87612        -0.41850
C         13.48595        11.96803        -0.64079
C         12.28647        12.71305        -0.52167
C         13.54976        14.84458        -0.40641
C         12.30146        14.14617        -0.51495
C         13.54755        16.28614        -0.27981
C         12.29148        16.98901        -0.27618
C         13.55718        19.12568        -0.08752
C         12.29654        18.41770        -0.06764
C         13.57562        20.53821        -0.06102
C         12.33691        21.30622         0.19710
C         13.50900        23.43524        -0.43621
C         12.26634        22.72203        -0.15500
C         13.52911        24.88802        -0.31300
C         12.31938        25.57801        -0.21920
C         13.57681        27.70762        -0.02597
C         12.31821        27.01361        -0.14313
C         13.58218        29.11936         0.20081
C         12.28710        29.79386         0.43579
C         13.52644        32.03837         0.43424
C         12.27027        31.30566         0.56391
C         13.51488        33.42635         0.48118
C         12.26412        34.14645         0.45108
C         13.48827        36.25978         0.67620
C         12.28339        35.56292         0.49083
C         13.48203        37.70429         0.82688
C         12.22513        38.39793         0.85213
C         15.86815         3.33658        -0.45645
C         14.63835         4.05125        -0.33273
C         15.90093         6.14099        -0.80634
C         14.65304         5.45774        -0.47102
C         15.92605         7.65176        -0.81120
C         14.65190         8.36943        -0.57987
C         15.89949        10.47979        -0.12024
C         14.73738         9.83629        -0.89688
C         15.99766        11.94482        -0.44648
C         14.77626        12.69123        -0.92796
C         16.00523        14.78917        -0.30601
C         14.76597        14.13351        -0.46577
C         16.03233        16.22932         0.15003
C         14.76413        16.98154        -0.16966
C         16.03417        19.11415        -0.25429
C         14.79243        18.40863        -0.17223
C         16.02843        20.52868        -0.27198
C         14.79736        21.22000        -0.18090
C         16.03710        23.40645         0.13362
C         14.81301        22.68527        -0.38124
C         16.07358        24.87314        -0.21367
C         14.81559        25.60593        -0.62908
C         16.03534        27.72062        -0.01327
C         14.80367        27.03531        -0.16940
C         16.02859        29.14027         0.18366
C         14.77838        29.82835         0.24400
C         16.02942        32.00017         0.58848
C         14.79328        31.32464         0.06916
C         15.99774        33.42688         0.74927
C         14.76202        34.14473         0.61248
C         15.95770        36.26166         0.96584
C         14.73813        35.55008         0.75919
C         15.93500        37.69542         1.08556
C         14.68081        38.38223         1.01798
C         18.37009         3.30688        -0.51252
C         17.12168         4.00175        -0.52701
C         18.37444         6.14834        -0.56468
C         17.16082         5.42338        -0.62359
C         18.38589         7.58288        -0.43394
C         17.20340         8.33906        -0.49404
C         18.44177        10.45594        -0.17581
C         17.20498         9.73956        -0.28761
C         18.44620        11.88928        -0.16502
C         17.19908        12.61458        -0.33808
C         18.46462        14.76410        -0.27981
C         17.21390        14.06762        -0.35237
C         18.46058        16.21602        -0.39554
C         17.30102        16.94241        -0.25720
C         18.49434        19.07841        -0.53613
C         17.29661        18.38965        -0.36474
C         18.50453        20.56136        -0.84569
C         17.26861        21.29394        -0.39142
C         18.55013        23.41144        -0.22199
C         17.30199        22.65601        -0.22209
C         18.53238        24.82590        -0.07781
C         17.26770        25.55802        -0.12085
C         18.49496        27.71530         0.11161
C         17.27757        27.01145        -0.05929
C         18.48546        29.14354         0.30435
C         17.25445        29.85124         0.33557
C         18.46778        31.96002         0.85318
C         17.24272        31.28065         0.60573
C         18.43494        33.37458         1.38252
C         17.18692        34.13456         1.02358
C         18.41622        36.27793         1.26276
C         17.18464        35.55165         1.08630
C         18.37863        37.70153         1.35350
C         17.13424        38.38588         1.28387
C         19.56761         4.00447        -0.57297
C         20.84039         6.16648        -0.66095
C         19.60390         5.41806        -0.57138
C         20.87449         7.50737        -0.46301
C         19.65817         8.23259         0.06313
C         20.86113        10.46853         0.03327
C         19.67096         9.74183        -0.08931
C         20.86833        11.86365         0.03399
C         19.66858        12.60560        -0.06505
C         20.88207        14.83105         0.08157
C         19.66609        14.06013        -0.11387
C         20.92956        16.16205        -0.15328
C         19.76127        16.87433        -0.79528
C         20.92867        19.09484        -0.61136
C         19.75228        18.37719        -0.61306
C         20.94675        20.51738        -0.44832
C         19.79249        21.26013        -0.46206
C         20.98169        23.44902        -0.19956
C         19.78347        22.71001        -0.29723
C         20.96642        24.82819        -0.05962
C         19.75314        25.55089        -0.00624
C         20.92673        27.73355         0.28332
C         19.74159        27.00265         0.12454
C         20.91786        29.11994         0.45383
C         19.72062        29.84818         0.48478
C         20.90057        32.03765         0.83274
C         19.70480        31.28447         0.73939
C         20.88705        33.43501         0.97486
C         19.70792        34.15145         1.15411
C         20.85282        36.35593         1.40733
C         19.67512        35.59515         1.28151
C         20.80601        37.75215         1.52491
C         19.59354        38.42372         1.49903
O         11.77778        21.01817         1.54175
O         15.89801         6.93117        -2.08613
O         14.30768        23.02832        -1.70270
O         12.22529        30.42636         1.76848
O          7.50852         9.38265         1.77086
O          2.94363        27.49436        -2.55996
O          7.61645        26.32276        -2.20543
O          5.70234        18.80616        -2.15421
O          9.01562        18.55410         1.37400
O          0.89780         7.04985         2.39731
O         19.66882         8.01539         1.53117
H         19.66548         7.04440         1.67422
O         19.90896        16.66672        -2.24754
H         19.90370        15.69770        -2.40104
O         14.87757        31.49654        -1.41383
H         15.69555        31.04017        -1.70909
O         13.18864         5.85966         1.38409
O         15.89725        23.35102         1.59555
H         16.70115        23.75324         1.98767
O          6.78861        21.35618         1.51822
H          7.54198        21.68358         2.05392
O          5.86898        16.23667         0.94773
H          5.97337        17.13428         1.32830
O         16.07763        16.18145         1.62704
H         15.24899        15.75288         1.93036
O          6.84477         4.54229        -2.06215
H          5.97335         5.00561        -2.08127
O          6.86637        33.76776         1.85979
H          7.56165        34.11374         2.45755
O         15.53117        10.36807         1.29413
H         16.26675        10.73839         1.82662
O         14.87767        12.75557        -2.39669
H         15.78548        13.05348        -2.61685
O          3.57125        11.58122        -1.79600
H          2.73644        11.09404        -1.96958
O          6.52405        33.83283        -1.77737
H          5.83260        33.47086        -2.37028
O         18.45746        20.62870        -2.32250
H         19.19574        20.07551        -2.65804
O          4.27180         5.73060        -1.12178
H          3.46995         5.16922        -1.18903
O          3.86940         8.01161         2.83422
H          4.81971         7.87014         3.03219
O          8.62888        14.96071        -2.48906
H          7.71348        15.18525        -2.79293
O         15.08188         9.96194        -2.29649
H         14.36367         9.56650        -2.83206
O         14.87642        25.66082        -2.10684
H         14.77629        24.72590        -2.41565
O          1.63196         3.50447         1.25036
H          0.87919         3.68394         1.85262
O          9.51250         9.71100        -1.94027
H          9.63417        10.58966        -2.36134
O          1.30390        27.54435         0.72297
H          0.49361        27.91082         1.13538
O         18.36055        33.21256         2.86650
H         19.16317        32.71557         3.13546
O          6.06216        12.50406         1.75407
H          6.75861        11.95400         2.17415
O         10.78933         6.48667         1.98842
H         11.70003         6.55936         2.36039
O          2.41073        30.12365        -2.78912
H          2.51514        29.20619        -3.14668
O         11.10279        36.46637        -1.34799
H         11.90206        36.99941        -1.54817
O          5.92825        14.91134        -2.42775
H          5.68887        14.01446        -2.74611
H          3.25925         2.53395         3.55653
H          2.12166         3.84259         5.33358
H          0.77061         5.88296         4.65011
H         -1.04295         8.18512         1.37478
H         -1.05007        10.39275         0.25996
H         -1.07696        12.28357         0.28454
H         -1.10966        14.67963        -0.05617
H         -1.11194        16.60208        -0.29500
H         -1.08526        19.00997        -0.53698
H         -1.03128        20.85994        -0.98016
H         -0.99683        23.28229        -1.13181
H         -0.93517        25.13781        -1.63581
H         -0.98219        27.55034        -1.35690
H         -0.92451        29.40434        -0.53613
H         -0.97792        31.84872        -0.59096
H         -1.00533        33.77944        -0.57770
H         -0.98942        36.20351        -0.16280
H          0.24256        38.31083         0.27252
H          4.19484         2.34768         1.34358
H          2.38420        39.52005         0.57278
H          6.22875         2.47611         0.16079
H          4.84524        39.51365         0.62024
H          8.46113         2.53661        -0.78843
H          7.31045        39.50840         0.73362
H         10.87306         2.39129        -0.39172
H          9.75952        39.48913         0.97053
H         13.34245         2.29199        -0.30537
H         12.22689        39.47415         1.08473
H         15.85179         2.23788        -0.40404
H         14.67052        39.47553         1.14229
H         18.37274         2.20846        -0.47280
H         17.12232        39.48255         1.37163
H         20.51774         3.45035        -0.59313
H         21.75954         5.62194        -0.92690
H         21.82889         8.04550        -0.55560
H         21.81830         9.93998         0.14264
H         21.83267        12.38296         0.11530
H         21.77666        14.32304         0.46985
H         21.86719        16.70889         0.02258
H         21.89525        18.57768        -0.68171
H         21.92421        20.99575        -0.29352
H         21.95198        22.93725        -0.25139
H         21.92806        25.35515        -0.00870
H         21.89813        27.22222         0.29568
H         21.88101        29.62917         0.59042
H         21.87294        31.54428         0.70672
H         21.84804        33.96456         0.90597
H         21.83158        35.85807         1.43403
H         21.74337        38.31536         1.63512
H         19.56134        39.51956         1.58056
