         576
 CSIRO Nanostructure Databank - Neutral Graphene Oxide Data Set
C          6.02745        19.07731         0.59983
C          6.14132        20.41994         0.40020
C          4.98021        21.24033         0.05893
C          6.38662        23.28958        -0.11759
C          5.05835        22.57614        -0.10332
C          6.30810        24.75862         0.19695
C          8.37740        14.69014         0.59154
C          8.39830        16.07680         0.74979
C          7.22064        16.84115         0.64227
C          8.51850        18.93462         0.75916
C          7.18561        18.25789         1.12886
C          8.51134        20.38895         1.12391
C          7.39978        21.12232         0.71477
C          8.61466        23.22798         1.07912
C          7.43871        22.54177         0.66451
C          8.53460        24.70141         1.25329
C          7.38343        25.46315         0.70819
C          8.60754        27.61068         1.10108
C          7.41705        26.88234         0.80240
C          8.65104        29.02387         1.08953
C         10.67525        10.26080         0.31352
C         10.52044        11.54794         0.92725
C          9.50482        12.43060         0.57006
C         10.85062        14.64602         0.48786
C          9.59217        13.88556         0.94329
C         10.90712        15.97301         0.89212
C          9.68765        16.74606         1.05658
C         10.95347        18.85071         1.50062
C          9.70342        18.11845         1.22781
C         10.99013        20.32811         1.40730
C          9.70385        21.05385         1.75503
C         11.01624        23.25014         1.76669
C          9.74972        22.54279         1.49470
C         11.08737        24.71824         1.57553
C          9.82419        25.46299         1.54392
C         11.06911        27.59078         1.41089
C          9.83635        26.90592         1.32551
C         11.07788        29.00096         1.48467
C          9.85888        29.74095         1.34511
C         11.07726        31.91678         1.67277
C          9.85946        31.15144         1.41008
C         11.15925        33.36454         1.42861
C         13.30706         6.06558        -0.23556
C         13.31126         7.48553         0.27304
C         12.01800         8.23860         0.09464
C         13.17028        10.38191        -0.33138
C         11.94021         9.61916         0.09814
C         13.21903        11.86316        -0.70125
C         12.03205        12.75282        -0.69838
C         13.33270        14.64063         0.06287
C         12.04108        13.96741         0.00275
C         13.40689        15.99819         0.44098
C         12.26583        16.56425         1.25828
C         13.41657        18.86865         0.91851
C         12.26332        18.08834         1.39140
C         13.39545        20.26016         0.92148
C         12.19100        20.98303         1.32113
C         13.56990        23.17058         1.25909
C         12.29777        22.43937         1.61904
C         13.61711        24.68697         1.51474
C         12.28493        25.40941         1.46779
C         13.53448        27.57648         1.22008
C         12.31319        26.84018         1.43342
C         13.54570        28.95272         1.27248
C         12.37558        29.63688         1.92594
C         13.62450        31.86974         1.44786
C         12.38621        31.15872         1.83358
C         13.62543        33.28447         1.45844
C         12.36194        34.02418         1.52902
C         13.60414        36.14411         1.66143
C         12.41834        35.46400         1.69535
C         13.70177        37.55850         1.94650
C         15.74969         6.09680        -0.43037
C         14.46115         5.41650        -0.50218
C         15.71442         7.55334        -0.35876
C         14.53501         8.23468        -0.17295
C         15.69162        10.35404        -0.81902
C         14.52996         9.73888         0.00379
C         15.72322        11.85854        -0.66344
C         14.52678        12.56371        -0.60487
C         15.74726        14.70086        -0.46226
C         14.52529        13.98023        -0.36375
C         15.76928        16.10906        -0.27852
C         14.60624        16.71590         0.25840
C         15.74691        18.94268        -0.19554
C         14.64658        18.15229         0.55837
C         15.30205        20.27298        -0.56304
C         14.39811        20.99947         0.18181
C         15.60492        23.27840        -0.42049
C         14.59910        22.46651         0.42076
C         15.79984        24.67069         0.14704
C         14.55748        25.42543         0.50194
C         15.87126        27.60702         0.19578
C         14.84529        26.84292         1.01416
C         15.92662        29.00338         0.37659
C         14.63089        29.74784         0.59618
C         16.01911        31.84981         0.94108
C         14.78853        31.17053         1.06972
C         16.04995        33.24653         1.12441
C         14.84678        33.96363         1.28063
C         16.12489        36.13533         1.43111
C         14.82384        35.45838         1.10004
C         16.14278        37.54425         1.61594
C         14.89048        38.22360         1.90513
C         18.22163         6.11677        -0.34937
C         16.95090         5.42497        -0.46337
C         18.18315         7.54823        -0.24453
C         16.98915         8.25924        -0.37267
C         18.19599        10.39622        -0.50321
C         16.99111         9.67993        -0.45713
C         18.18564        11.82530        -0.61639
C         16.96407        12.55530        -0.62621
C         18.18882        14.71138        -0.74175
C         16.98577        13.99446        -0.65188
C         18.21524        16.14289        -0.81671
C         16.96482        16.87090        -0.63764
C         18.11924        18.99671        -1.28394
C         16.91031        18.25119        -0.81296
C         18.24285        20.50823        -1.29494
C         17.05742        21.39222        -1.19112
C         18.23959        23.23095        -0.06152
C         16.97444        22.59868        -0.60043
C         18.23160        24.74655        -0.24793
C         16.90719        25.42819        -0.54574
C         18.12621        27.64402        -0.72870
C         16.98927        26.91894        -0.29805
C         18.19772        29.03782        -0.48949
C         17.12423        29.70797         0.14290
C         18.64961        31.76897         0.60244
C         17.30101        31.01955         0.90516
C         18.51244        33.29296         0.53260
C         17.38778        33.93196         1.31681
C         18.47638        36.16123         0.89422
C         17.31679        35.43530         1.19412
C         18.52560        37.57322         1.09156
C         17.36112        38.23553         1.54900
C         20.72426         6.14557        -0.36552
C         19.44718         5.45078        -0.39141
C         20.70117         7.56677        -0.26440
C         19.43909         8.28397         0.11415
C         20.64293        10.40952        -0.46761
C         19.44740         9.72244        -0.32251
C         20.61098        11.79431        -0.78865
C         19.41957        12.50575        -0.72744
C         20.68254        14.62666        -1.19308
C         19.48689        13.99275        -0.52578
C         20.69051        16.13183        -1.23921
C         19.43499        16.83213        -0.90960
C         20.75949        18.99518        -0.88717
C         19.46930        18.27626        -1.17416
C         20.76800        20.35443        -0.66207
C         19.54301        21.13537        -0.91703
C         20.68769        23.24326        -0.76632
C         19.52258        22.57570        -0.58123
C         20.65913        24.69220        -1.04382
C         19.44582        25.47544        -0.68079
C         20.67038        27.60906        -1.28923
C         19.34635        26.89739        -1.15946
C         20.68273        29.11400        -1.23355
C         19.37787        29.82468        -0.92473
C         20.69515        32.00174        -0.82699
C         19.32499        31.32664        -0.70316
C         20.68552        33.37734        -0.65826
C         19.52567        34.02151        -0.02864
C         20.70881        36.32119        -0.31093
C         19.50658        35.50432         0.06872
C         20.88559        37.64350         0.34151
C         19.76676        38.26198         0.91155
C         23.26898         6.16281        -0.56438
C         21.94414         5.45000        -0.44224
C         23.21054         7.54347         0.06294
C         21.93359         8.30372         0.04297
C         23.19876        10.46279        -0.62110
C         21.94930         9.83988         0.04951
C         23.10100        11.70389        -1.19210
C         21.81157        12.43998        -1.40595
C         23.13046        14.64570        -1.73602
C         21.95213        13.91889        -1.11646
C         23.20206        16.09967        -1.31651
C         21.99315        16.82666        -1.16476
C         23.25491        18.87680        -0.78221
C         22.00679        18.22370        -0.88705
C         23.29881        20.32081        -0.43801
C         22.00903        21.11407        -0.32685
C         23.20385        23.10845        -1.46726
C         22.05227        22.62510        -0.60662
C         23.15073        24.50236        -0.83284
C         21.96342        25.37809        -1.20105
C         23.17266        27.58871        -0.54896
C         21.91845        26.85273        -0.89143
C         23.14201        29.10576        -0.59283
C         21.93689        29.83731        -0.95147
C         23.17581        31.96595        -1.12622
C         21.93459        31.26017        -0.99981
C         23.12324        33.40435        -1.46747
C         21.82030        34.16913        -1.19098
C         23.20622        36.39904        -0.96137
C         21.89134        35.66263        -0.96511
C         23.33196        37.62343        -0.12226
C         22.16810        38.22744         0.41238
C         25.67306         6.09215         0.17487
C         24.48734         5.43085        -0.03590
C         25.75267         7.55797         0.05394
C         24.48500         8.32807         0.09953
C         25.85073        10.35708        -0.53219
C         24.49850         9.78747        -0.28627
C         26.09215        11.41776        -1.35266
C         24.21688        12.47371        -1.73664
C         25.75867        14.46355        -1.75769
C         24.41006        13.82507        -1.62294
C         25.73111        15.99391        -1.49096
C         24.45200        16.74551        -1.22273
C         25.72511        18.87557        -0.95156
C         24.47532        18.15153        -0.95455
C         25.77074        20.27207        -1.07254
C         24.57685        21.11442        -0.66765
C         25.65940        23.14204        -1.67802
C         24.38497        22.41621        -1.44158
C         25.59869        24.65411        -1.54018
C         24.45353        25.29765        -0.78337
C         25.70599        27.60332        -1.05819
C         24.48795        26.81974        -0.63463
C         25.66022        29.03860        -1.09793
C         24.49646        29.86016        -0.78378
C         25.63300        32.01917        -1.40177
C         24.43285        31.30360        -1.15801
C         25.69089        33.44436        -1.51272
C         24.41501        34.16565        -1.60250
C         25.77109        36.27539        -1.03856
C         24.46998        35.68315        -1.35058
C         25.80379        37.58270        -0.40675
C         24.59224        38.15982         0.11409
C         28.10164         6.05280         0.63088
C         26.88188         5.41524         0.62135
C         28.18831         7.42096         0.06158
C         26.94391         8.21833         0.04067
C         28.33918        10.33008        -0.29487
C         27.02640         9.73788         0.19228
C         28.39514        11.71535        -0.74458
C         27.18572        12.35151        -1.20344
C         28.27644        14.51179        -1.33863
C         27.05917        13.73833        -1.44637
C         28.28923        15.90597        -1.20576
C         26.99927        16.61109        -0.98486
C         28.26344        18.86661        -0.79253
C         26.98638        18.14558        -0.78103
C         28.25362        20.27797        -1.05298
C         27.00267        20.94819        -1.23131
C         28.23283        23.22580        -1.31909
C         26.97130        22.40706        -1.57985
C         28.15875        24.67521        -1.81786
C         26.85362        25.44323        -1.69646
C         28.15978        27.60214        -1.80092
C         26.86665        26.89957        -1.39534
C         28.12757        28.99839        -1.27723
C         26.88026        29.76873        -1.48972
C         28.14526        32.09978        -1.47051
C         26.89656        31.28519        -1.56107
C         28.14115        33.45963        -2.13064
C         26.89218        34.18230        -1.64912
C         28.24343        36.28661        -1.35321
C         26.94808        35.58785        -1.39108
C         28.19037        37.82146        -1.13191
C         26.99612        38.26333        -0.33371
C         30.52631         6.13959         1.16225
C         29.32091         5.46464         1.12259
C         30.67796         7.49598         0.64583
C         29.49777         8.13421         0.01426
C         30.79173        10.26211        -0.38479
C         29.49601         9.60391        -0.20617
C         30.82908        11.72644        -0.52149
C         29.60922        12.38256        -0.88545
C         30.89509        14.55054        -1.25259
C         29.58119        13.78613        -1.34381
C         30.79789        15.99774        -0.94594
C         29.51222        16.63463        -0.96126
C         30.63573        18.60973        -0.16876
C         29.44033        18.03508        -0.63975
C         30.59137        20.73599        -0.45754
C         29.46269        21.09488        -1.14650
C         30.79655        23.25078        -1.56176
C         29.49041        22.44354        -1.86419
C         30.74801        24.74034        -1.48074
C         29.44019        25.44297        -1.70417
C         30.62660        27.58710        -0.92413
C         29.32022        26.83223        -1.10977
C         30.53775        28.97994        -0.66630
C         29.19125        29.49033        -0.60406
C         30.59869        32.05868        -0.93765
C         29.23586        31.65016        -0.78504
C         30.73619        33.43654        -1.48023
C         29.48502        34.19862        -1.89731
C         30.75631        36.39486        -1.49390
C         29.44078        35.67061        -1.62218
C         30.71445        37.93152        -1.23413
C         29.47099        38.25131        -0.48316
C         32.87613         6.18267         1.88238
C         31.69790         5.53384         1.77800
C         33.11652         7.54930         1.29553
C         31.85515         8.18159         0.76104
C         33.07776        10.42279         0.73301
C         32.01787         9.55240         0.20927
C         33.14452        11.78602         0.33818
C         32.02753        12.41080        -0.32721
C         33.40608        14.57657        -0.53553
C         32.14739        13.80373        -0.82534
C         33.37747        16.09677        -0.85709
C         31.99340        16.71245        -0.67703
C         33.13498        18.95775        -0.39606
C         31.91823        18.07984        -0.36041
C         33.12168        20.47165        -0.45877
C         31.90231        21.29061        -0.59918
C         33.22603        23.33092        -0.73408
C         32.00427        22.61435        -0.96103
C         33.19750        24.84216        -0.82837
C         31.78374        25.40809        -0.57898
C         32.96599        27.66266        -0.24728
C         31.81558        26.91804        -0.67484
C         32.89915        29.09485        -0.15281
C         31.66916        29.79328        -0.39743
C         32.92188        31.92592        -0.15899
C         31.68447        31.26050        -0.50117
C         33.08266        33.38154        -0.42221
C         32.00760        34.14452        -1.11839
C         33.09893        36.30064        -0.35174
C         32.00963        35.64283        -1.11955
C         33.03447        37.74489        -0.20432
C         31.95418        38.46879        -0.55617
C         33.79897         8.50977         2.27951
C         35.04528        10.67647         2.12706
C         33.99817         9.89091         1.68324
C         35.20406        12.02224         1.68605
C         34.24210        12.59603         0.79739
C         35.40661        14.72863         0.99768
C         34.37278        13.97552         0.43788
C         35.54278        16.16890         0.68596
C         34.48227        16.85683        -0.10844
C         35.47988        19.07311         0.45080
C         34.38300        18.32335         0.04718
C         35.47551        20.51280         0.29302
C         34.35145        21.21608        -0.11012
C         35.55875        23.38769         0.13913
C         34.36384        22.65921        -0.26104
C         35.60495        24.89812        -0.05768
C         34.20079        25.47444         0.15687
C         35.29517        27.70747         0.55079
C         34.17347        26.99208         0.09790
C         35.22219        29.11965         0.69361
C         34.03774        29.80583         0.33531
C         35.01010        31.96646         1.24087
C         33.97964        31.24231         0.40821
C         35.10933        33.44698         0.97155
C         34.14116        34.13008         0.30401
C         34.09271        35.58084         0.25784
C         36.28169        12.79723         2.17813
C         37.49437        14.95373         2.35148
C         36.38774        14.15175         1.86395
C         37.54340        16.32055         2.19781
C         36.30627        17.03815         1.69145
C         37.70355        19.11207         1.55159
C         36.59133        18.41866         1.12821
C         37.89823        20.52194         1.15098
C         36.73102        21.24272         0.51600
C         37.76914        23.41042         1.27857
C         36.66749        22.71319         0.57689
C         37.70599        24.89059         1.44688
C         36.59385        25.63067         0.82136
C         37.62990        27.73940         1.53030
C         36.50352        26.98891         0.96788
C         37.55825        29.14090         1.56624
C         36.38128        29.86253         1.18984
C         36.32046        31.23982         1.31777
C         38.66200        17.11083         2.61921
C         39.86203        19.26112         2.80044
C         38.74688        18.47033         2.34064
C         39.98687        20.61505         2.55531
C         38.97508        21.32286         1.78917
C         40.25853        23.47407         1.96387
C         39.00593        22.68636         1.65199
C         40.04679        24.94387         2.24899
C         38.91620        25.63883         1.87881
C         38.79863        27.05941         1.94443
C         41.02539        21.42396         3.17954
C         41.11618        22.75804         2.98142
O         22.29350        36.48861        -2.09690
O         19.56334        36.22792        -1.21965
O         25.90249        25.25255        -2.83429
O         33.26678        13.83404        -1.78223
O         26.37050        22.69293        -2.87814
O         30.42829        33.69677        -2.89722
O         37.85938        20.73660        -0.30433
O         25.19746        11.71202        -2.36729
O         24.41244        35.12139        -2.69091
O         35.80580        16.48719        -0.70469
O         26.85209        30.44953        -2.79402
O         25.86475        15.45038        -2.83157
O         30.50032        19.78560         0.56989
O         14.77303        22.58634         1.87644
O         31.23302        24.09830        -2.69591
O         19.07741        25.39597         0.74613
O         26.88434        17.16628         0.34432
O         19.94904        27.12521        -2.45588
O         28.98249         7.43876        -1.18817
O         11.72778        31.68238         3.02893
O         13.07590        10.81783        -1.74264
O         30.38650        14.10099        -2.53446
O         31.77015        36.13765        -2.49480
O          8.86938        25.07916         2.61107
O         19.12999        20.99402        -2.35236
O         11.72635        18.45262         2.70323
O         22.68691        20.63797         0.86679
O         19.82934        29.62828        -2.30719
O         15.87870        20.82893        -1.70920
O         28.89093        25.08428        -3.01034
O         24.77511        25.91669         0.48491
O         22.28349        27.09531         0.50426
O         35.44871        17.25747         2.79401
O         22.17944        33.73047        -2.53010
O         18.78471        18.48973        -2.47166
O         20.45097        15.32007        -2.48083
O         21.23309        24.96408        -2.37754
O         31.78186         9.59352        -1.23158
O         15.79364        18.70140         1.26062
O         37.20498        24.02028         2.54283
O         24.46079         9.34384         1.15600
O         22.49242         7.67894         1.30959
O         33.14693        33.62267        -1.88361
O         29.00684        30.64160         0.16595
O         23.89120        29.64282         0.53799
O         33.28827        19.64251        -1.69853
O         11.77318        22.76244         2.94414
O         22.68061        23.68641         0.40514
O         25.00835        21.64809         0.62159
H         24.19627        21.73343         1.18118
O         29.36440        22.25582        -3.26378
H         29.53656        23.12130        -3.69998
O         18.49490        31.83986        -1.76842
H         18.85525        31.48896        -2.61299
O         33.65827        16.26151        -2.25638
H         34.61345        16.07232        -2.38761
O         26.99829        10.01882         1.61681
H         26.08506         9.79718         1.92539
O         16.75274        25.30057        -2.01629
H         16.09145        25.96917        -2.29808
O         13.76794        25.59954        -0.72703
H         13.94219        24.80146        -1.29498
O         34.45612        31.88832         2.62233
H         35.19252        32.06478         3.24607
O         28.29951        27.63730        -3.22092
H         28.19301        26.72505        -3.57935
O         18.26985        22.96905         1.36259
H         18.77696        23.70401         1.77942
O         11.04109        12.38943        -1.52673
H         11.32043        11.54183        -1.95501
O         32.95854         8.61958         3.43464
H         33.35097         9.27823         4.04331
O         17.42072        30.58998         2.31124
H         16.76052        29.88240         2.48176
O          6.85554        23.22368        -1.52485
H          6.83529        22.27950        -1.79258
O         31.33575        25.09737         0.77262
H         30.43830        25.50186         0.88709
O         15.52378        10.02117        -2.22100
H         14.64279        10.36203        -2.50839
O         12.51499        29.29893         3.34746
H         12.01169        29.98906         3.84155
O         14.95754        23.37734        -1.73476
H         15.61816        23.82024        -2.32399
O         33.56818        25.26473        -2.16377
H         32.95399        24.80864        -2.79191
O         14.78310        10.00359         1.40400
H         14.36743         9.27776         1.92487
O         41.04752        23.47024         0.71179
H         41.18360        22.53275         0.45521
O         19.60793        31.48338         1.64044
H         19.12230        31.13003         2.42192
O         27.96273        33.33673        -3.55254
H         28.84834        33.16076        -3.94409
O         19.77837        14.15991         0.91166
H         19.08377        13.68816         1.41914
O         21.55280        12.33481        -2.85248
H         22.13630        13.00318        -3.30052
O         14.09126        29.91495        -0.77600
H         14.02989        29.02347        -1.18247
O         28.38803        23.36876         0.11255
H         28.16647        22.51803         0.54868
O          7.11057        18.25189         2.58161
H          6.32896        17.72479         2.84658
O         33.87265        25.09845         1.50912
H         32.90161        25.21494         1.64404
O          9.73536        13.91586         2.42454
H          8.90276        13.56345         2.80540
O         12.51766        16.03698         2.59786
H         12.07537        16.65418         3.22758
O         21.95270        10.24990         1.44352
H         22.73470         9.80471         1.85605
O         36.09195        25.12943        -1.39959
H         35.32104        25.09904        -2.02037
O         28.88548        26.55054         0.26727
H         28.68679        27.40626         0.70793
O         11.46793        11.91331         1.82997
H         11.19364        12.77404         2.23827
O         30.68000        38.54122        -2.55367
H         31.31324        38.03353        -3.11165
O          9.57218        20.92919         3.21404
H         10.34901        21.39575         3.60445
O          8.58176        18.92043        -0.70589
H          8.33853        18.01039        -0.99250
O         19.48832         8.30889         1.59317
H         20.28822         8.82843         1.84659
O         14.70908        35.64203        -0.36205
H         14.71174        36.60720        -0.53821
O         22.90527        14.66861        -3.20013
H         22.02643        15.11484        -3.33208
O         28.01308        38.41162        -2.43844
H         28.91521        38.58268        -2.80991
O         34.04427         7.40788         0.18683
H         33.56610         7.00275        -0.56672
O         14.06750        24.80656         2.88299
H         14.67743        24.04923         3.05028
O         15.51898        26.82894         2.29704
H         14.98803        26.25630         2.90924
O         23.50009         6.42589        -1.99381
H         23.60087         5.56280        -2.44780
O         13.45865         7.39963         1.75686
H         12.71836         6.85037         2.09373
O         17.71496        33.69698         2.73297
H         17.69645        32.72430         2.88103
H          5.04794        18.58780         0.47316
H          4.00616        20.73181        -0.01342
H          4.15498        23.15761        -0.34219
H          5.42070        25.30921        -0.15165
H          7.42830        14.18122         0.36324
H          6.28465        16.34467         0.33952
H          6.52120        27.44743         0.50633
H          7.72333        29.58847         0.91571
H          9.76471         9.70885         0.03493
H          8.77981        12.11524        -0.19362
H          8.92709        31.69948         1.20878
H         10.22235        33.93599         1.34461
H         12.34504         5.53196        -0.28484
H         11.09911         7.67841         0.33821
H         11.48610        35.99287         1.94817
H         12.78021        38.09661         2.21560
H         14.44857         4.35256        -0.78521
H         14.92508        39.30228         2.11714
H         16.95802         4.32675        -0.54214
H         17.38979        39.31853         1.73915
H         19.45829         4.35400        -0.48351
H         19.85605        39.29501         1.28042
H         21.92896         4.35303        -0.53624
H         22.28192        39.17398         0.96264
H         24.44210         4.33877         0.09720
H         24.67358        39.09476         0.68865
H         26.80086         4.37258         0.96401
H         27.01345        39.27881         0.08942
H         29.27271         4.44335         1.53131
H         29.52679        38.15399         0.61470
H         33.73417         5.68803         2.36239
H         31.58838         4.51934         2.19151
H         33.89573        38.24250         0.26755
H         31.96650        39.55818        -0.40381
H         34.79944         8.08659         2.58042
H         35.77371        10.26493         2.84251
H         35.90229        34.00335         1.49758
H         34.86967        36.12761         0.81503
H         37.02421        12.32485         2.83768
H         38.32713        14.42613         2.84329
H         38.42141        29.71101         1.94314
H         37.19519        31.78566         1.70631
H         39.49474        16.61410         3.14256
H         40.61932        18.76262         3.42554
H         40.92242        25.50463         2.61377
H         39.65870        27.64876         2.29831
H         41.71915        20.92108         3.87104
H         41.90802        23.33559         3.48239
