         598
 CSIRO Nanostructure Databank - Neutral Graphene Oxide Data Set
C         23.23482        69.57050         2.53103
C         23.28371        70.89554         2.99002
C         22.12925        71.71703         3.27980
C         23.14896        73.95680         2.70845
C         22.08687        73.09069         3.11493
C         25.50052        65.49884         0.91323
C         25.51420        66.90157         1.15914
C         24.39035        67.55611         1.69775
C         25.63032        69.68044         1.88761
C         24.41211        68.92908         2.05538
C         25.69467        71.01014         2.37359
C         24.57465        71.48682         3.05911
C         25.67559        74.13455         2.30677
C         24.49104        73.63937         2.90690
C         27.84825        61.31141        -0.34887
C         27.85078        62.74832        -0.22480
C         26.65076        63.43832         0.14019
C         27.71639        65.65982        -0.15466
C         26.59627        64.83085         0.33010
C         27.82373        67.06254         0.27818
C         26.70519        67.67693         0.89318
C         27.93056        69.81380         0.98845
C         26.76763        69.05857         1.25937
C         28.06017        71.20190         1.49681
C         26.91329        71.86541         2.25098
C         28.05993        74.07119         1.89789
C         26.86741        73.37396         2.19511
C         30.22087        57.00016        -1.00109
C         30.17780        58.41445        -1.03790
C         29.00194        59.15829        -0.81644
C         30.29072        61.28906        -0.67653
C         28.98899        60.57771        -0.66448
C         30.34021        62.78691        -0.49348
C         29.04765        63.47510        -0.41852
C         30.25789        65.71021        -0.57228
C         29.01679        64.92554        -0.57532
C         30.19727        67.07926        -0.39058
C         29.01280        67.78325         0.04335
C         30.24761        69.94254         0.17808
C         29.05972        69.20206         0.35485
C         30.32150        71.39719         0.31560
C         29.10576        72.08216         0.89770
C         30.44057        74.15030         1.18413
C         29.24289        73.46811         1.39907
C         32.82319        52.75731        -0.74196
C         32.77399        54.16456        -0.68769
C         31.52956        54.87575        -0.84451
C         32.68214        57.05227        -0.71503
C         31.43952        56.26738        -0.92178
C         32.74709        58.43084        -1.27779
C         31.42438        59.13869        -1.40507
C         32.72092        61.40213        -1.51757
C         31.43808        60.63928        -1.38276
C         32.72950        62.86144        -1.17276
C         31.58448        63.53126        -0.85646
C         32.80246        65.81286        -1.08602
C         31.57613        65.01899        -0.68904
C         32.59689        67.29608        -1.34779
C         31.37365        67.90042        -0.76088
C         32.79130        69.97265        -0.09333
C         31.49278        69.23637        -0.11297
C         32.81207        71.44864         0.05817
C         31.61635        72.11633         0.33755
C         32.86216        74.19381         0.65626
C         31.63244        73.51289         0.68868
C         35.34973        48.51337        -0.74331
C         35.31016        49.92552        -0.66946
C         34.09025        50.63981        -0.73568
C         35.29000        52.77165        -0.49192
C         34.05122        52.04734        -0.65380
C         35.25898        54.21433        -0.46084
C         34.00989        54.87259        -0.53224
C         35.23635        57.07903        -0.65988
C         33.98656        56.33345        -0.48113
C         35.17134        58.49719        -0.89995
C         34.00788        59.19250        -1.16111
C         35.21827        61.42752        -1.07699
C         34.05704        60.64306        -1.67517
C         35.23957        62.78398        -1.04888
C         34.02241        63.57461        -1.40302
C         35.38455        65.71024        -1.11841
C         34.08026        65.06740        -1.45274
C         35.67764        67.04919        -1.42023
C         33.78184        68.19359        -1.45210
C         35.25916        70.01563        -0.52706
C         33.94583        69.36313        -0.79570
C         35.28353        71.48796        -0.37645
C         34.05828        72.14743        -0.03763
C         35.32992        74.19219         0.38504
C         34.07688        73.54426         0.29950
C         37.79440        44.23408        -0.42897
C         37.79692        45.67016        -0.53323
C         36.59610        46.38568        -0.66700
C         37.79221        48.54055        -0.44263
C         36.56451        47.80697        -0.62982
C         37.78073        49.95452        -0.39793
C         36.54271        50.65441        -0.50418
C         37.76647        52.79427        -0.16083
C         36.50437        52.06922        -0.40124
C         37.76910        54.29501        -0.16349
C         36.46991        54.98128        -0.37882
C         37.74792        57.15298        -0.31069
C         36.44977        56.38592        -0.49691
C         37.69496        58.45717        -1.14904
C         36.45722        59.22217        -0.75175
C         37.75555        61.41058        -0.77166
C         36.45896        60.69691        -0.72681
C         37.74530        62.78645        -0.50898
C         36.42914        63.47216        -0.46161
C         37.74267        65.68131        -0.27015
C         36.45869        65.00181        -0.43278
C         37.74582        67.16514         0.00583
C         36.64844        67.81082        -0.78748
C         37.83144        70.04802        -0.76287
C         36.57137        69.28409        -0.60082
C         37.79498        71.45143        -0.60451
C         36.53325        72.13364        -0.30252
C         37.77751        74.15471         0.42344
C         36.54715        73.51440         0.13938
C         40.15136        39.99212         0.40273
C         40.11459        41.38391         0.48775
C         38.94890        42.09030         0.10800
C         40.25188        44.16377        -0.11691
C         38.93618        43.48706        -0.13522
C         40.28817        45.69149        -0.27261
C         39.01945        46.41500        -0.39234
C         40.25267        48.54710        -0.06175
C         39.02263        47.81829        -0.30934
C         40.25011        49.98822        -0.08059
C         39.03082        50.68566        -0.29065
C         40.27423        52.81035        -0.45953
C         39.05169        52.09502        -0.34691
C         40.29488        54.24858        -0.74374
C         39.03144        54.98356        -0.56685
C         40.08057        57.06851        -1.28678
C         38.96066        56.34241        -0.69613
C         40.13910        58.54533        -1.14965
C         38.97605        59.25248        -1.03212
C         40.19490        61.40848        -0.72993
C         38.97709        60.69762        -0.85600
C         40.18732        62.78873        -0.40024
C         38.95492        63.47354        -0.26536
C         40.26139        65.67677         0.05160
C         38.93386        64.91509         0.04673
C         40.24186        67.11030        -0.36156
C         39.03635        67.83938        -0.42583
C         40.22205        69.66702        -1.45955
C         39.02223        69.19471        -0.88789
C         40.20809        71.89316        -1.17833
C         39.00541        72.27156        -0.57017
C         40.24698        74.18827         0.40162
C         39.01607        73.54669         0.11641
C         42.54569        35.74086        -0.05775
C         42.57755        37.11646         0.23581
C         41.36745        37.87722         0.36629
C         42.61663        39.98790         0.74479
C         41.36875        39.26037         0.54138
C         42.64082        41.34958         0.95114
C         41.29207        42.10434         1.13560
C         42.27218        44.39549         1.19271
C         41.31178        43.55797         0.69986
C         42.53549        45.72797         0.75680
C         41.46745        46.43554         0.20375
C         42.62526        48.57770         0.71636
C         41.44204        47.85840         0.20449
C         42.66367        50.09332         0.59309
C         41.45322        50.73366         0.04877
C         42.80301        52.73744        -0.53322
C         41.48557        52.09913        -0.28415
C         42.82182        54.16145        -1.05779
C         41.48385        54.89645        -1.10294
C         42.53106        57.18507        -1.77375
C         41.34888        56.31200        -1.56559
C         42.69673        58.45876        -1.31022
C         41.43002        59.24104        -1.27567
C         42.77186        61.31775        -0.70443
C         41.46465        60.72539        -1.06724
C         42.68822        62.70416        -0.18707
C         41.44345        63.49850        -0.27259
C         42.74819        65.60278        -0.25733
C         41.50223        64.88891        -0.15846
C         42.76932        67.11784        -0.26580
C         41.45931        67.72152        -0.71650
C         42.71879        69.65678        -1.62392
C         41.45329        68.98697        -1.33467
C         42.69813        71.90288        -1.27333
C         41.46110        72.48187        -0.85704
C         42.75664        74.17857         0.32481
C         41.48565        73.62619         0.00997
C         44.91991        32.92459        -0.74142
C         43.72966        33.61155        -0.53071
C         44.99336        35.69617        -0.22952
C         43.74091        35.01012        -0.26531
C         45.02623        37.09524         0.05238
C         43.83022        37.78748         0.32441
C         45.13474        39.92787         0.41559
C         43.89813        39.18758         0.87365
C         45.16324        41.33320         0.59093
C         43.95141        42.01265         1.01751
C         45.23339        44.17095         1.12822
C         44.11754        43.32007         1.44489
C         45.14491        45.56696         1.12994
C         43.88799        46.32750         0.84438
C         45.12803        48.59112         1.22986
C         43.92892        47.83784         0.73756
C         45.14495        50.10206         1.13736
C         43.96014        50.81319         0.57094
C         45.24750        52.87037         0.13513
C         44.02341        52.11329         0.08477
C         45.30684        54.19378        -0.34490
C         44.16119        54.85476        -0.92291
C         45.48417        56.97454        -1.18882
C         44.39990        56.09487        -1.49885
C         45.37022        58.47372        -1.39808
C         44.00695        59.21200        -1.38948
C         45.22389        61.34049        -0.55483
C         43.96823        60.64830        -0.88852
C         45.22713        62.74526        -0.35117
C         43.98275        63.47980        -0.12303
C         45.22047        65.63615        -0.41298
C         43.95654        64.93441        -0.29484
C         45.24008        67.02503        -0.67217
C         43.93843        67.63947        -1.11019
C         45.18633        69.96220        -1.27098
C         43.93079        69.15548        -1.23781
C         45.19962        71.50950        -0.98431
C         43.93048        72.26722        -0.73705
C         45.20768        74.20063         0.05317
C         43.95398        73.53134        -0.03972
C         46.15121        33.58944        -0.70559
C         47.45230        35.67837        -0.42104
C         46.21253        34.98010        -0.45777
C         47.50745        37.06816        -0.23267
C         46.28190        37.80307        -0.01359
C         47.54685        39.95021        -0.31051
C         46.30038        39.20967         0.08696
C         47.62018        41.34897         0.22552
C         46.40417        42.03760         0.56548
C         47.67022        44.13567         0.82758
C         46.46204        43.45464         0.83298
C         47.69300        45.60280         0.77387
C         46.38901        46.35568         0.88598
C         47.73820        48.55806         1.29373
C         46.42400        47.81440         1.30749
C         47.76154        50.04012         1.06426
C         46.48515        50.79804         1.14652
C         47.78259        52.84453         0.30092
C         46.48421        52.25722         0.68621
C         47.77965        54.22929        -0.06461
C         46.57252        54.91128        -0.35240
C         47.87918        57.03247        -0.61724
C         46.60951        56.30978        -0.70601
C         47.87547        58.53371        -0.70340
C         46.65081        59.34068        -1.16352
C         47.59400        61.35926         0.04385
C         46.45651        60.65780        -0.43438
C         47.58883        62.76124         0.14086
C         46.41831        63.47479        -0.16775
C         47.65206        65.64560        -0.15793
C         46.43327        64.93031        -0.22061
C         47.66097        67.05178        -0.38334
C         46.44784        67.73006        -0.71380
C         47.72685        69.92823        -0.70857
C         46.46788        69.17378        -1.07300
C         47.62821        71.36071        -0.33229
C         46.46515        72.12829        -0.45098
C         47.58583        74.44587        -0.34714
C         46.43826        73.58064        -0.20241
C         48.75118        37.76282        -0.18832
C         50.03957        39.84329        -0.01778
C         48.82155        39.16618        -0.11681
C         50.11043        41.27830         0.07527
C         48.84999        41.97905         0.31113
C         50.20783        44.13463         0.60697
C         48.91630        43.37568         0.75073
C         50.15296        45.61397         0.59387
C         48.99828        46.30111         0.83803
C         50.28720        48.50745         0.91361
C         49.01346        47.76592         1.11167
C         50.27003        50.00821         0.83814
C         48.94952        50.71757         0.77046
C         50.22166        52.75051        -0.18818
C         48.96943        52.10980         0.40456
C         50.25471        54.23877        -0.00629
C         49.05459        54.92904        -0.05973
C         50.26869        57.08576         0.03971
C         49.06443        56.35380        -0.11858
C         50.22788        58.48989         0.26658
C         48.91411        59.15514         0.17573
C         50.01216        61.32335         0.86871
C         48.79074        60.63043         0.52295
C         50.00875        62.77082         1.03400
C         48.72897        63.52675         0.69826
C         50.02404        65.63806         0.53900
C         48.85690        64.96423         0.32232
C         50.19461        67.03320        -0.01368
C         48.88841        67.78967        -0.19040
C         50.15585        69.89265        -0.02971
C         48.90206        69.16640        -0.21105
C         50.11853        71.34451         0.01308
C         48.84450        71.88600         0.21738
C         50.17037        74.38905        -0.30610
C         48.86806        74.03454         0.05391
C         51.30704        41.97002        -0.00484
C         52.65020        44.14352         0.23845
C         51.35335        43.47446        -0.14302
C         52.71246        45.53231         0.32386
C         51.42943        46.29228         0.24986
C         52.78255        48.43573         0.42016
C         51.47424        47.77692         0.35818
C         52.76747        49.86276         0.09095
C         51.54884        50.66797         0.42572
C         52.74664        52.77591         0.03631
C         51.55833        52.10656         0.09762
C         52.77961        54.23543         0.04350
C         51.53288        54.97448        -0.36133
C         52.67024        57.11434         0.44442
C         51.51628        56.40945         0.10678
C         52.61491        58.48980         0.83602
C         51.36499        59.16130         0.74145
C         52.47893        61.31193         1.60121
C         51.22141        60.55842         1.21185
C         52.42566        62.81849         1.61475
C         51.25427        63.52083         1.08779
C         52.51431        65.71521         1.10148
C         51.17435        65.01449         1.31678
C         52.53835        67.10520         0.87906
C         51.21702        67.82952         0.81230
C         52.61760        69.93610         0.05033
C         51.31742        69.23703         0.28426
C         52.55872        71.43901         0.23608
C         51.32488        72.13067         0.15325
C         52.58247        74.22549        -0.10172
C         51.33387        73.58465        -0.01458
C         53.92498        46.26385         0.44150
C         55.22195        48.42365         0.42337
C         53.98543        47.69697         0.40130
C         55.30127        49.83686         0.28457
C         54.07373        50.56686        -0.15013
C         55.31413        52.78223         0.19688
C         54.05750        52.09315        -0.34433
C         55.12264        54.13794         0.81150
C         53.90788        54.90152         0.41285
C         55.14907        57.08329         1.02725
C         53.95579        56.38401         0.45738
C         55.05754        58.52264         1.37700
C         53.82085        59.20397         1.24626
C         54.99000        61.32555         1.64183
C         53.78550        60.61560         1.46974
C         54.98369        62.81401         1.79878
C         53.70182        63.58689         1.72167
C         54.95567        65.70311         1.17472
C         53.72519        65.00929         1.28256
C         54.96419        67.10780         1.04868
C         53.75939        67.83252         0.90131
C         54.97982        69.99463         0.79403
C         53.80708        69.27204         0.69249
C         55.03247        71.41246         0.47323
C         53.79976        72.11886         0.26485
C         55.05115        74.20652        -0.05868
C         53.81371        73.54363         0.05885
C         56.46207        50.54365         0.60860
C         57.65978        52.74086         1.24357
C         56.54342        52.01085         0.59715
C         57.63797        54.11814         1.41515
C         56.31637        54.81331         1.40489
C         57.56580        57.04666         1.81565
C         56.28466        56.29972         1.60890
C         57.55379        58.52272         1.67225
C         56.26495        59.21643         1.64922
C         57.49254        61.38671         1.80414
C         56.22146        60.63024         1.72272
C         57.44307        62.74006         1.16999
C         56.23757        63.55712         1.47075
C         57.39053        65.65209         0.78830
C         56.22273        64.99707         1.12702
C         57.49170        67.09748         0.90863
C         56.24136        67.81426         1.26331
C         57.53447        70.04808         1.10796
C         56.22332        69.33324         1.23659
C         57.53881        71.44232         0.60303
C         56.26839        72.10010         0.39587
C         57.50101        74.16005        -0.19109
C         56.27374        73.50578         0.05434
C         58.82365        54.89383         1.59792
C         60.02346        57.04870         1.51436
C         58.84315        56.30335         1.67630
C         60.02352        58.47604         1.44240
C         58.76162        59.18763         1.61585
C         60.01149        61.35878         1.21353
C         58.81028        60.65738         1.68452
C         60.01432        62.86370         1.22172
C         58.68356        63.42137         0.74794
C         59.84606        65.58704         0.00727
C         58.60032        64.87917         0.40507
C         59.77715        67.11392        -0.13631
C         58.68864        67.75712         0.71316
C         60.09082        69.90563         0.58903
C         58.81283        69.20677         0.96655
C         60.04877        71.40805         0.35964
C         58.73614        72.09258         0.30439
C         59.93704        74.11259        -0.50388
C         58.73113        73.46836        -0.14600
C         61.18473        59.20164         1.14897
C         62.38480        61.34440         0.63639
C         61.19708        60.63674         0.98746
C         62.39904        62.75350         0.39752
C         61.18839        63.50387         0.52310
C         62.33386        65.52343        -0.22953
C         61.14962        64.85923         0.14170
C         62.28649        66.96507        -0.55315
C         61.13466        67.76999        -0.09311
C         62.44207        69.85950        -0.28286
C         61.22511        69.13705         0.02613
C         62.42875        71.29585        -0.39923
C         61.22618        72.03574        -0.26588
C         62.38355        74.08838        -0.93756
C         61.18576        73.42794        -0.57970
C         63.57979        63.43451         0.00702
C         64.81030        65.53604        -0.47310
C         63.58282        64.82524        -0.24777
C         64.86734        66.92853        -0.63154
C         63.60145        67.68840        -0.74125
C         64.85386        69.82711        -0.75034
C         63.62713        69.15099        -0.55501
C         64.85454        71.24874        -0.86623
C         63.63226        71.97309        -0.75746
C         64.83500        74.05510        -1.27502
C         63.61699        73.39330        -0.98854
C         66.06990        67.65725        -0.72541
C         67.28171        69.78469        -1.07848
C         66.08524        69.07758        -0.86585
C         67.29500        71.19707        -1.23701
C         66.07144        71.93306        -1.14448
C         67.29217        74.01196        -1.60466
C         66.06089        73.35200        -1.33748
C         68.49663        71.90461        -1.49721
C         68.48184        73.29016        -1.67479
O         42.36685        49.40976         1.87258
O         48.38158        59.53986         1.47579
O         40.62229        44.77503        -1.38649
O         47.48246        40.07685        -1.84426
O         44.87574        49.39606         2.39929
O         32.52636        65.51857         0.32526
O         32.08640        58.57124        -2.58076
O         55.84516        63.31410         2.87161
O         43.34517        62.95272         1.10312
O         24.73077        72.61233         3.85588
O         56.69134        56.66005         2.95240
O         44.73103        58.93684        -2.62058
O         47.10569        48.10225         2.54986
O         43.53105        56.53933        -2.48205
O         62.77594        67.29821        -1.89920
O         51.63552        60.71957         2.63397
O         32.37033        69.22232         1.10125
O         43.11645        43.91762         2.20261
O         49.87365        43.57752         1.89801
O         45.30733        70.94333        -2.33091
O         58.97734        64.99779        -1.02799
O         36.10391        64.16812         0.75191
O         30.62531        61.84792         0.63058
O         42.63625        70.90414        -2.24670
O         56.16044        68.60276         2.49778
O         31.80931        61.21251        -2.67135
O         51.18730        50.54461         1.85896
O         57.89614        62.64890        -0.22157
O         41.42813        60.17375        -2.43259
O         52.88152        63.39318         2.93540
O         49.93022        48.03517         2.24592
O         34.07637        64.29664        -2.69848
O         36.45898        59.89302         0.55411
O         55.32731        54.13005         2.26604
O         56.37705        52.67443        -0.78769
O         34.79828        67.72236        -2.28669
O         46.95645        46.12332        -0.44116
O         58.29883        61.23267         3.00148
O         28.03817        65.42300        -1.55312
O         53.33532        49.97943        -1.26372
O         44.15326        47.07490        -0.46039
O         35.88841        69.47908         0.70927
O         39.60519        65.34753         1.31813
O         51.26341        47.13169        -0.95566
O         28.06191        71.31033         2.96232
O         40.36824        56.54687        -2.64873
O         60.48280        70.82430         1.64804
O         46.45832        51.89743         2.10903
O         40.17680        70.87974        -2.15740
O         58.36630        69.72193         2.25240
O         48.34540        57.79152        -1.85747
O         48.99284        63.21934         2.08131
O         48.78179        73.00676         1.02827
O         33.18389        56.93486         0.64278
O         31.54133        67.78470        -2.23780
O         47.44225        69.53863        -2.09983
O         55.01565        56.91193        -0.43491
O         29.25630        72.01960        -0.54058
O         37.80343        53.56773         1.10864
O         42.92586        53.02526        -1.98097
O         50.84953        65.24658         2.73587
H         51.46312        64.66229         3.25058
O         50.07145        52.53521        -1.64385
H         50.75282        53.10367        -2.08034
O         50.71363        67.95859         2.16681
H         50.73178        67.06120         2.59267
O         37.55787        67.36401         1.43354
H         38.21515        66.79019         1.88992
O         51.54741        54.98910        -1.83774
H         50.83773        55.60101        -2.13141
O         50.76621        66.87932        -1.34856
H         50.06628        66.53733        -1.94347
O         34.33119        60.54496        -3.08952
H         33.46599        60.37431        -3.53202
O         44.08246        39.01734         2.33625
H         44.87429        38.45312         2.46854
O         43.69519        67.12671        -2.45503
H         44.35923        67.52262        -3.05842
O         37.89146        57.49337         1.08317
H         37.20389        58.15553         1.32146
O         42.98531        67.57369         1.09484
H         42.32573        67.13913         1.67603
O         51.08674        43.77767        -1.55546
H         51.90293        43.59829        -2.06738
O         54.07490        52.32601        -1.77486
H         55.01470        52.26833        -2.06568
O         47.03791        59.84658        -2.47048
H         47.28843        59.06778        -3.01772
O         52.87243        69.76296        -1.40619
H         52.05956        70.03797        -1.88264
O         60.12274        63.28395         2.62666
H         59.54513        62.67536         3.15456
O         59.33887        67.42428        -1.49818
H         58.95781        66.58659        -1.86478
O         46.29628        40.83103        -2.16672
H         46.65464        41.71596        -2.42242
O         41.02604        42.08099         2.56673
H         41.16621        41.16423         2.88456
O         37.50511        58.10014        -2.53541
H         38.34539        57.74082        -2.89456
H         22.88467        74.87963         2.17203
H         25.68254        75.15877         1.90258
H         28.05606        75.16491         2.02302
H         30.51190        75.20504         1.48998
H         32.89733        75.25102         0.95968
H         35.36758        75.24253         0.71141
H         37.76773        75.15931         0.87159
H         40.23508        75.13732         0.95676
H         42.81138        75.13704         0.86060
H         45.20387        75.26819         0.31859
H         47.41172        75.46618        -0.72136
H         50.33266        75.32085        -0.86857
H         52.60738        75.30889        -0.29252
H         55.06971        75.28431        -0.27834
H         57.49308        75.22167        -0.47969
H         59.90432        75.17893        -0.77276
H         62.36246        75.16751        -1.14790
H         64.82849        75.14185        -1.44651
H         67.29738        75.10100        -1.75508
H         22.28085        69.02366         2.51288
H         21.17287        71.19667         3.44270
H         21.08548        73.55003         3.15383
H         24.61096        64.92048         1.20409
H         23.46652        66.98187         1.86524
H         26.88615        60.78744        -0.24735
H         25.76736        62.83560         0.39894
H         29.27280        56.44828        -0.91159
H         28.05865        58.61311        -0.66034
H         31.89070        52.18937        -0.87607
H         30.61227        54.27738        -0.95206
H         34.41113        47.95502        -0.87595
H         33.14914        50.08188        -0.85147
H         36.82155        43.72085        -0.47706
H         35.64892        45.83677        -0.77708
H         39.25127        39.44880         0.07436
H         38.03240        41.51215        -0.09319
H         41.57718        35.22315        -0.12392
H         40.40669        37.35835         0.23004
H         44.89562        31.84410        -0.94139
H         42.76863        33.07892        -0.56544
H         47.08251        33.03063        -0.87591
H         48.38607        35.11765        -0.57632
H         49.68395        37.17853        -0.18887
H         50.97646        39.26568        -0.01222
H         52.23632        41.40413        -0.17723
H         53.56418        43.54134         0.35732
H         54.87130        45.70299         0.46359
H         56.15275        47.86669         0.60785
H         57.32830        49.98708         0.99715
H         58.60977        52.19798         1.36829
H         59.78940        54.36846         1.53797
H         60.97561        56.51559         1.37174
H         62.12884        58.65560         1.00402
H         63.32019        60.77931         0.51003
H         64.52434        62.87449        -0.06131
H         65.75139        64.96650        -0.44145
H         67.02846        67.11710        -0.71330
H         68.22987        69.23112        -1.15195
H         69.44413        71.35111        -1.56469
H         69.42398        73.81821        -1.87885
