         620
 CSIRO Nanostructure Databank - Neutral Graphene Oxide Data Set
C         23.44336        27.59571         3.24466
C         23.40186        28.94905         2.99399
C         23.32116        31.79713         2.22783
C         23.29344        33.11430         1.83306
C         23.22360        35.82800         0.73619
C         23.18962        37.04018         0.11869
C         23.10172        40.03535        -0.35613
C         23.07513        41.38626        -0.21698
C         23.00689        44.33230        -0.15873
C         22.97495        45.70227        -0.20349
C         25.88644        24.76480         3.14813
C         24.71212        25.46151         3.32800
C         25.85081        27.56306         2.77286
C         24.65951        26.86784         3.12036
C         25.81394        28.97684         2.57413
C         24.57771        29.67488         2.64467
C         25.75992        31.78525         2.08483
C         24.54588        31.08216         2.33033
C         25.73987        33.16846         1.73202
C         24.49095        33.83364         1.54808
C         25.68935        35.88159         0.84416
C         24.46329        35.17775         1.05789
C         25.68450        37.20601         0.32008
C         24.42275        37.76438        -0.17893
C         25.60715        40.07099        -0.19611
C         24.37214        39.31213        -0.43672
C         25.53814        41.50657        -0.23943
C         24.28179        42.17903        -0.22914
C         25.45411        44.34944        -0.39267
C         24.23866        43.60644        -0.25324
C         25.42032        45.77677        -0.45147
C         24.17572        46.46221        -0.35863
C         25.33409        48.59166        -0.59096
C         24.15796        47.87316        -0.43233
C         28.38856        23.27894         2.57765
C         28.29215        24.69537         2.43911
C         27.08444        25.42311         2.74696
C         28.26742        27.54580         2.25312
C         27.06881        26.83725         2.58608
C         28.26252        28.97374         2.21237
C         27.03333        29.68663         2.32225
C         28.24165        31.81805         2.03736
C         27.01444        31.09653         2.14675
C         28.22400        33.24255         1.79963
C         26.97117        33.88418         1.55690
C         28.14962        35.99832         1.05347
C         26.93730        35.24976         1.15154
C         28.09706        37.37106         0.69241
C         26.87684        37.97895         0.30283
C         28.04424        40.18100         0.01137
C         26.82525        39.41017         0.02252
C         28.00439        41.57626        -0.28063
C         26.74806        42.25615        -0.33002
C         27.91535        44.41509        -0.68002
C         26.70624        43.67164        -0.46555
C         27.85797        45.81793        -0.79261
C         26.62751        46.52275        -0.62509
C         27.82934        48.71329        -0.80717
C         26.58796        47.94828        -0.68743
C         27.83414        50.12492        -0.77380
C         30.64566        23.21057         1.64202
C         29.53287        22.57481         2.23845
C         30.54440        24.64574         1.40593
C         29.41545        25.40680         1.94423
C         30.68875        27.54524         1.71071
C         29.45370        26.82502         1.93812
C         30.71826        28.96017         1.88865
C         29.48930        29.69363         2.08518
C         30.73278        31.85787         2.25435
C         29.46500        31.11128         2.11589
C         30.73854        33.39300         2.24232
C         29.42977        34.00336         1.75066
C         30.63180        36.16836         1.40660
C         29.38943        35.36345         1.42530
C         30.61445        37.50544         0.82192
C         29.30771        38.23511         0.94880
C         30.49842        40.24424         0.03342
C         29.28848        39.55817         0.24939
C         30.46443        41.62898        -0.32723
C         29.21670        42.30698        -0.42895
C         30.39594        44.41240        -0.85818
C         29.18311        43.71647        -0.69459
C         30.39022        45.83978        -1.20901
C         29.05594        46.58363        -1.15976
C         30.29741        48.75926        -0.98044
C         29.06941        48.04549        -0.96451
C         30.26303        50.17746        -0.93624
C         29.02213        50.83531        -0.86738
C         32.99348        20.43861         0.73748
C         31.85651        21.10956         1.11390
C         33.07228        23.24477         1.07918
C         31.84395        22.52863         1.25937
C         33.11450        24.66293         1.15971
C         31.86980        25.42387         1.12340
C         33.14525        27.52272         1.39176
C         31.89750        26.85327         1.43608
C         33.14597        28.93721         1.51928
C         31.95761        29.64161         1.75271
C         33.20467        31.85331         1.59506
C         32.00455        31.10283         1.99601
C         33.16845        33.23674         1.34253
C         31.96264        33.96302         1.52876
C         33.11187        36.07873         0.72035
C         32.00256        35.41485         1.39319
C         33.05450        37.43400         0.42562
C         31.79574        38.16247         0.50913
C         32.95551        40.23539        -0.17699
C         31.76248        39.56009         0.12718
C         32.93434        41.65135        -0.42703
C         31.68451        42.34351        -0.48539
C         32.86931        44.48003        -0.83066
C         31.64806        43.74839        -0.72244
C         32.85563        45.91056        -0.96228
C         31.62585        46.61776        -1.06995
C         32.78663        48.75964        -1.11450
C         31.58042        48.04690        -1.04739
C         32.84166        50.20819        -0.89593
C         31.51878        50.96281        -0.82094
C         32.76660        53.05192        -1.23448
C         31.58354        52.38934        -1.17613
C         35.38946        19.07418        -0.23546
C         35.43314        20.43661         0.17745
C         34.23942        21.11732         0.58486
C         35.55248        23.17619         0.88371
C         34.29475        22.51435         0.84317
C         35.58574        24.58240         1.33282
C         34.34069        25.36862         1.25070
C         35.66164        27.45914         1.17987
C         34.38345        26.77823         1.26014
C         35.67561        28.93038         1.00138
C         34.39926        29.66987         1.23743
C         35.74657        31.85349         1.31036
C         34.46996        31.11854         1.57444
C         35.62723        33.27279         0.90587
C         34.38228        33.90495         0.89056
C         35.54487        36.00394         0.08743
C         34.25340        35.24115         0.20504
C         35.48820        37.41080        -0.15619
C         34.24497        38.12314        -0.02445
C         35.41505        40.22591        -0.51355
C         34.20685        39.51570        -0.24338
C         35.39413        41.64676        -0.62161
C         34.14384        42.36379        -0.59416
C         35.32488        44.53362        -0.75921
C         34.11253        43.79216        -0.75738
C         35.32819        45.93894        -0.94490
C         34.08840        46.60926        -1.07543
C         35.35847        48.83224        -1.38017
C         34.03723        48.04223        -1.37765
C         35.31850        50.29353        -1.17965
C         34.09207        50.97072        -1.12181
C         35.27437        53.12520        -1.10938
C         34.05507        52.39527        -1.11006
C         35.28837        54.57635        -1.08262
C         37.75906        19.11020        -0.79402
C         36.50541        18.43943        -0.71770
C         37.84786        20.45349        -0.32881
C         36.67761        21.12994         0.14001
C         38.03721        23.16766         0.60671
C         36.75029        22.50103         0.56268
C         38.13055        24.58438         0.92601
C         36.91092        25.31889         1.34932
C         38.15180        27.52746         1.18680
C         36.86678        26.78897         1.20300
C         38.18334        28.97962         0.91221
C         36.96341        29.67807         0.99314
C         38.16714        31.77660         0.70805
C         36.96390        31.08577         0.92659
C         38.12245        33.25537         0.69143
C         36.82585        33.95006         0.53195
C         38.00378        35.99071        -0.25633
C         36.78993        35.31660         0.13684
C         37.87575        37.32853        -0.93744
C         36.66795        38.11427        -0.50309
C         37.87656        40.24676        -0.86340
C         36.65569        39.52325        -0.63320
C         37.85776        41.66290        -0.84473
C         36.61757        42.34586        -0.70152
C         37.87783        44.57085        -0.59969
C         36.57299        43.80281        -0.51290
C         37.81541        46.01603        -0.87943
C         36.58436        46.68955        -0.97638
C         37.80274        48.85696        -0.95870
C         36.59436        48.10924        -1.08919
C         37.78640        50.29512        -1.00639
C         36.54566        51.00654        -1.09147
C         37.76654        53.14745        -1.03304
C         36.52172        52.43367        -1.07842
C         37.75084        54.62881        -1.19144
C         36.43669        55.28978        -1.12029
C         39.94591        16.53222        -2.41681
C         38.84124        17.14896        -1.88789
C         40.17679        19.13103        -1.29765
C         38.92137        18.45799        -1.32215
C         40.28069        20.45837        -0.78302
C         39.11101        21.12754        -0.32100
C         40.51549        23.05457         0.37603
C         39.18529        22.45687         0.20721
C         40.57744        24.56567         0.64377
C         39.31397        25.28311         0.78335
C         40.63555        27.46387         0.51605
C         39.42835        26.74675         0.98983
C         40.64182        28.88289         0.44934
C         39.40928        29.64965         0.67592
C         40.59908        31.79842         0.18234
C         39.39932        31.07821         0.54207
C         40.57572        33.17327        -0.08100
C         39.38628        33.98360         0.26576
C         40.40778        36.00135        -0.79660
C         39.23989        35.35348        -0.27218
C         40.38068        37.40450        -1.10744
C         39.15897        38.11848        -0.96894
C         40.34023        40.24665        -1.24906
C         39.12295        39.52675        -1.03138
C         40.32921        41.69194        -1.26204
C         39.09205        42.41390        -1.03392
C         40.25549        44.61392        -1.28757
C         39.07486        43.80966        -0.97963
C         40.25557        46.04180        -0.92991
C         39.04684        46.74205        -0.90109
C         40.27730        48.90954        -0.77779
C         39.04430        48.18078        -0.85568
C         40.25549        50.32695        -0.77600
C         39.00455        51.01653        -0.89985
C         40.22385        53.16725        -0.60654
C         38.96640        52.44885        -0.91145
C         40.23601        54.65666        -0.53909
C         39.02505        55.42111        -0.98853
C         40.21763        57.48183        -0.34654
C         39.05668        56.87054        -0.67579
C         42.35771        16.53406        -2.93365
C         41.21814        17.17313        -2.38899
C         42.62134        19.08915        -1.73259
C         41.34225        18.46925        -1.80671
C         42.74868        20.41327        -1.15724
C         41.57580        21.10261        -0.74451
C         42.95721        23.04663        -0.12329
C         41.70269        22.41178        -0.21638
C         43.02360        24.48050         0.28457
C         41.80407        25.29282         0.31744
C         43.03542        27.40465        -0.12202
C         41.82510        26.70457         0.25389
C         43.01269        28.84103        -0.25789
C         41.83052        29.56425         0.06766
C         42.97787        31.70394        -0.66652
C         41.92763        31.06964         0.21417
C         42.87866        33.07841        -0.98411
C         41.69482        33.84851        -0.67651
C         42.70153        35.90394        -1.64248
C         41.60785        35.25117        -0.98607
C         42.79618        37.35258        -1.77239
C         41.58095        38.10699        -1.47757
C         42.75195        40.28903        -1.86247
C         41.53490        39.52280        -1.52855
C         42.79492        41.72844        -1.50994
C         41.54577        42.39847        -1.37165
C         42.82938        44.55486        -1.16168
C         41.57080        43.86333        -1.45865
C         42.80326        45.96222        -0.70089
C         41.50466        46.73641        -0.61868
C         42.74058        48.91636        -0.53842
C         41.52836        48.21654        -0.64301
C         42.75969        50.33486        -0.63397
C         41.50698        51.05731        -0.71740
C         42.76910        53.22794        -0.94592
C         41.50286        52.44968        -0.68865
C         42.74585        54.67715        -0.51461
C         41.53229        55.38129        -0.50429
C         42.70741        57.46434        -0.11440
C         41.49402        56.77947        -0.31107
C         43.58893        17.15543        -2.89554
C         45.04703        19.05562        -2.21153
C         43.74576        18.42579        -2.28698
C         45.23588        20.08053        -1.10872
C         44.02748        21.01400        -0.97203
C         45.48385        22.99412        -0.18162
C         44.13405        22.32866        -0.48532
C         45.46944        24.47106        -0.54860
C         44.33374        25.25026        -0.05084
C         45.34124        27.31561        -0.97723
C         44.21625        26.67601        -0.38816
C         45.29714        28.74197        -1.14876
C         44.18036        29.51831        -0.74147
C         45.26794        31.59629        -1.59889
C         44.16176        30.96215        -1.01413
C         45.18850        32.99866        -2.18772
C         43.90559        33.70622        -1.75564
C         45.49310        36.09346        -2.44794
C         43.66793        35.01269        -2.17369
C         45.33373        37.44020        -2.05558
C         44.02331        38.04591        -1.98158
C         45.31465        40.24871        -1.73062
C         44.05465        39.52476        -2.03316
C         45.27790        41.73773        -1.75136
C         43.99929        42.43965        -1.49451
C         45.26374        44.55220        -0.72314
C         44.01067        43.84961        -1.19451
C         45.22633        46.05820        -0.89836
C         44.06034        46.73980        -0.78398
C         45.25050        48.96032        -0.63655
C         44.02915        48.16901        -0.24766
C         45.25935        50.35395        -0.54743
C         43.99728        51.07142        -0.55322
C         45.22488        53.19620        -0.33017
C         44.01520        52.47839        -0.55175
C         45.22157        54.62819        -0.21722
C         43.95860        55.37058        -0.29563
C         43.90880        56.76746        -0.08518
C         47.39174        19.21005        -2.92252
C         46.08734        18.64394        -3.00869
C         47.64446        20.26280        -2.07809
C         46.57029        20.81085        -1.21454
C         47.81225        23.03297        -1.35161
C         46.67339        22.26199        -0.80425
C         47.78307        24.42501        -1.44180
C         46.55938        25.13032        -1.08864
C         47.64485        27.20120        -1.87850
C         46.51811        26.56102        -1.29375
C         47.41089        28.54237        -2.29190
C         46.39604        29.35614        -1.81778
C         47.86376        31.58151        -1.79373
C         46.54518        30.83667        -1.70616
C         47.78948        33.09083        -1.72283
C         46.49009        33.82778        -1.88411
C         47.78223        36.02812        -1.80958
C         46.59984        35.31141        -2.12066
C         47.76209        37.43152        -1.65743
C         46.52695        38.13951        -1.69884
C         47.75278        40.25903        -1.02110
C         46.49332        39.57499        -1.52262
C         47.81794        41.74782        -1.26213
C         46.57213        42.48589        -1.50244
C         47.76188        44.57633        -0.98594
C         46.55938        43.90705        -1.14059
C         47.75193        46.05137        -1.02448
C         46.51635        46.76761        -0.51573
C         47.82982        48.99520        -0.79512
C         46.47040        48.23064        -0.90805
C         47.75205        50.38136        -0.32834
C         46.49435        51.07002        -0.37188
C         47.63920        53.17354         0.24114
C         46.45401        52.47938        -0.14379
C         47.60698        54.55992         0.31708
C         46.42591        55.27660         0.05800
C         50.14673        20.21378        -2.24711
C         48.94130        20.90510        -1.99028
C         50.22813        22.98296        -1.77359
C         48.98929        22.29344        -1.70586
C         50.22786        24.41596        -1.76732
C         48.98199        25.15948        -1.78776
C         50.23351        27.30108        -2.21673
C         48.93896        26.55420        -2.01230
C         50.35860        28.79920        -2.06904
C         49.31775        29.64178        -2.46388
C         50.42804        31.67105        -1.81352
C         49.21890        31.00340        -2.13075
C         50.38883        33.13576        -1.79457
C         49.07466        33.82240        -1.98790
C         50.30552        36.06758        -1.71618
C         49.06766        35.32221        -1.97415
C         50.28220        37.41932        -1.47250
C         49.02090        38.16235        -1.49285
C         50.31272        40.27631        -1.37660
C         49.02861        39.52580        -1.37269
C         50.28549        41.74227        -1.10627
C         48.98396        42.44810        -1.05494
C         50.23460        44.57244        -0.69309
C         49.01920        43.88750        -0.99229
C         50.26902        45.98750        -0.55910
C         49.08285        46.78902        -0.89477
C         50.16705        48.83342        -0.00417
C         49.03177        48.20998        -0.52415
C         50.14354        50.26388         0.27102
C         48.91440        50.98574         0.17220
C         50.14520        53.08367         0.73025
C         48.81756        52.37557         0.76486
C         51.36968        20.85251        -2.11512
C         52.69126        22.93326        -1.62159
C         51.44327        22.24506        -1.86000
C         52.66969        24.34794        -1.46448
C         51.45722        25.07442        -1.68083
C         52.69541        27.20213        -1.31784
C         51.52202        26.52374        -1.89484
C         52.72340        28.67313        -1.26363
C         51.52240        29.45391        -1.60456
C         52.75266        31.45798        -0.85268
C         51.59873        30.87506        -1.54343
C         53.09174        32.84312        -1.03619
C         51.49076        33.92156        -1.99247
C         52.65626        35.86839        -0.79929
C         51.63946        35.40182        -1.87560
C         52.56549        37.27411        -0.55093
C         51.49406        38.05188        -1.01335
C         52.50291        40.22064        -0.10892
C         51.64149        39.54562        -1.15202
C         52.53138        41.61672         0.01386
C         51.45359        42.41688        -0.50374
C         52.52813        44.46437         0.30148
C         51.41627        43.80235        -0.32178
C         52.56780        45.88780         0.37627
C         51.41714        46.66597        -0.06116
C         52.61047        48.80626         0.41235
C         51.38026        48.07563         0.12487
C         52.56563        50.22424         0.79399
C         51.33815        50.94085         0.64032
C         51.30194        52.38653         0.76153
C         55.08134        22.94458        -1.12255
C         53.93024        22.26124        -1.47587
C         55.06574        24.34234        -0.88221
C         53.85526        25.04224        -1.08094
C         54.88524        27.09029        -0.13650
C         53.78801        26.47302        -0.86024
C         54.67493        28.44773         0.42136
C         53.72239        29.31586        -0.31535
C         54.47110        31.43762         0.94209
C         53.54470        30.73079         0.02449
C         54.42808        32.98781         1.02316
C         53.75626        33.65607        -0.16255
C         54.78631        35.80218         0.47522
C         53.72449        35.12083        -0.22155
C         54.77209        37.18589         0.70493
C         53.53261        37.91174         0.37500
C         54.69747        40.06996         1.13970
C         53.50046        39.40916         0.59385
C         54.66119        41.49165         1.30726
C         53.58368        42.26470         0.75492
C         54.64675        44.33343         1.57757
C         53.58969        43.68365         0.86392
C         54.68706        45.75371         1.64374
C         53.68230        46.51416         0.98035
C         54.86419        48.64706         1.69186
C         53.85556        47.96454         0.88272
C         54.83514        50.04511         1.74256
C         53.73800        50.80429         1.30512
C         57.52837        24.52960        -0.47019
C         56.24663        25.06325        -0.41423
C         57.19862        27.04567         0.80596
C         56.05346        26.39518         0.12393
C         57.08893        28.47282         1.29073
C         55.76482        29.15768         1.18621
C         56.95536        31.37649         1.73295
C         55.69888        30.65625         1.41791
C         56.81996        32.84989         2.10557
C         55.84279        33.55299         1.16431
C         57.07342        35.75418         1.59261
C         55.96208        35.03252         0.94078
C         57.05413        37.15284         1.63882
C         55.88124        37.88231         1.27417
C         56.91480        39.98371         2.17983
C         55.82457        39.31607         1.50469
C         56.78621        41.35599         2.55055
C         55.68197        42.12765         2.05298
C         56.65678        44.19765         2.98899
C         55.66087        43.55684         2.22609
C         56.72959        45.61774         3.02168
C         55.75742        46.41212         2.33799
C         56.89503        48.43457         3.12179
C         55.83966        47.84120         2.39632
C         58.67141        25.26547        -0.04684
C         59.67871        27.26913         1.03354
C         58.54839        26.50434         0.54293
C         59.58081        28.57675         1.37342
C         58.31499        29.35401         1.09540
C         59.35181        31.45735         2.14064
C         58.17669        30.73333         1.73789
C         59.32545        32.81504         2.36378
C         58.14651        33.58641         2.16669
C         59.32942        35.73555         2.59812
C         58.17932        34.99320         2.10704
C         59.38403        37.08211         2.57436
C         58.33341        37.91885         1.89910
C         59.06574        39.90694         3.29935
C         58.09743        39.27644         2.52586
C         58.88734        41.22494         3.75261
C         57.78073        41.96998         3.36504
C         58.77176        44.10362         4.34347
C         57.53293        43.36727         3.90204
C         58.84874        45.45095         4.30815
C         57.80881        46.26094         3.70802
C         57.86935        47.65955         3.74747
O         32.24210        50.60990         0.40399
O         40.04856        53.91122         0.71324
O         29.64232        46.15600        -2.44077
O         38.58009        55.09080        -2.34195
O         39.00155        27.16870         2.33813
O         36.32451        24.80215         2.59038
O         52.71991        33.33606        -2.29641
O         30.94835        25.05528         0.05778
O         47.05543        33.56572        -0.55608
O         52.86315        38.46469         1.57014
O         43.31414        40.05115        -3.19872
O         51.11476        26.84679        -3.28792
O         44.48011        35.50346        -3.20985
O         54.56704        30.93471         2.30855
O         56.43410        34.00801        -0.06673
O         34.71036        48.41768        -2.63945
O         53.98453        29.21818        -1.77286
O         57.10180        27.41012         2.25763
O         39.01266        33.87777         1.68361
O         42.13610        46.12603         0.59173
O         47.11923        21.17864         0.09999
O         50.45849        41.22261        -2.50368
O         31.48342        36.10394         2.58430
O         37.29370        44.22561         0.70720
O         46.02238        42.28557        -2.89256
O         34.84486        29.38859        -0.14628
O         49.06334        34.54887        -3.26178
O         47.42590        31.04800        -0.49125
O         53.71568        48.47182        -0.47615
O         47.17952        48.69806        -2.07323
O         43.96555        24.88206         1.31332
O         46.50904        46.69866         0.91418
O         40.77274        23.57084         1.71491
O         40.83771        44.39054        -2.63151
O         24.47502        38.34136        -1.52430
O         54.66953        28.48173         1.87268
O         48.43913        46.51759        -2.20234
O         31.54416        31.38409         3.39304
O         48.28477        29.10059        -3.22347
O         35.35676        31.50828         2.69366
O         48.50933        52.17750         2.19486
H         49.21419        51.60782         2.56998
O         42.83594        53.30875        -2.43004
H         42.98339        52.39989        -2.77008
O         56.73813        43.16164         5.12954
H         56.53384        44.04814         5.49604
O         58.86264        38.22241         0.55600
H         58.98675        37.36762         0.09090
O         33.86914        34.90696        -1.20390
H         34.68154        34.59895        -1.66097
O         37.60292        36.99274        -2.36448
H         37.55355        37.84071        -2.85630
O         52.45233        39.69529        -2.36329
H         52.03873        40.43310        -2.88007
O         53.68521        33.34280         2.20036
H         54.06578        32.81990         2.94510
O         45.30321        44.36379         0.72936
H         45.79473        45.17333         1.09360
O         58.29913        29.63016        -0.34707
H         59.04777        30.22986        -0.55043
O         45.16520        32.82893        -3.63308
H         44.94845        33.70804        -4.02255
O         56.21761        32.93218         3.43318
H         56.74049        32.36647         4.03932
O         44.15324        48.01309         1.19404
H         45.01327        47.49763         1.33109
O         52.21830        35.87048        -3.13234
H         52.93279        35.23822        -3.36692
O         45.26096        19.31235         0.12711
H         45.83074        19.80870         0.75802
O         29.20966        38.58140         2.38922
H         29.53548        37.81089         2.90440
O         42.42409        31.26306         1.59831
H         41.71335        30.97398         2.21037
O         30.82693        33.81255         3.63120
H         31.43538        33.17604         4.07536
O         47.66938        40.15995         0.45376
H         47.59059        39.20933         0.68534
O         45.65720        22.94221         1.25444
H         46.16576        22.12397         1.45536
H         22.52580        27.05837         3.52465
H         22.44114        29.47372         3.08208
H         22.36957        31.28887         2.43185
H         22.31896        33.61118         1.74217
H         22.27416        35.31058         0.92577
H         22.22992        37.46169        -0.20888
H         22.16042        39.47722        -0.45075
H         22.09993        41.88905        -0.17144
H         22.06094        43.78758        -0.03961
H         22.01602        46.23498        -0.12691
H         25.88535        23.67684         3.29799
H         23.79434        24.92968         3.61756
H         25.27192        49.68659        -0.64492
H         23.19743        48.40352        -0.36315
H         27.54412        22.72023         3.00232
H         26.89647        50.68442        -0.66362
H         29.56176        21.49268         2.42759
H         28.98864        51.93254        -0.82610
H         32.93658        19.35307         0.58564
H         30.92140        20.54767         1.24226
H         32.74643        54.12517        -1.46860
H         30.65273        52.92662        -1.40711
H         34.44333        18.51942        -0.19926
H         34.33384        55.11751        -1.03531
H         36.41687        17.39413        -1.03911
H         36.39909        56.38792        -1.13692
H         39.86298        15.53154        -2.86448
H         37.87769        16.62503        -1.92421
H         40.22588        58.56218        -0.13761
H         38.12955        57.45575        -0.75692
H         42.25265        15.53461        -3.37918
H         42.70039        58.55388         0.03205
H         44.46416        16.63329        -3.30444
H         44.83319        57.33228         0.09327
H         48.18641        18.81915        -3.57240
H         45.92379        17.86081        -3.76170
H         48.49902        55.12693         0.61521
H         46.46340        56.37055         0.14101
H         50.11546        19.13951        -2.47667
H         50.17847        54.17844         0.81915
H         52.29266        20.26874        -2.23372
H         52.25407        52.93169         0.82666
H         56.01320        22.37897        -0.98460
H         53.97989        21.17185        -1.60937
H         55.64718        50.58579         2.24788
H         53.76520        51.88497         1.50032
H         57.68831        23.53154        -0.90087
H         56.97720        49.52798         3.17660
H         59.66930        24.82852        -0.19737
H         60.64720        26.75316         1.12523
H         60.47889        29.10136         1.72838
H         60.31028        30.93034         2.22863
H         60.27689        33.31999         2.58157
H         60.15772        35.18171         3.06195
H         60.28437        37.58078         2.96007
H         59.98875        39.38355         3.58109
H         59.66021        41.65878         4.40055
H         59.57718        43.53712         4.83155
H         59.72763        45.96775         4.72295
H         58.69951        48.14952         4.27618
