         244
 CSIRO Nanostructure Databank - Neutral Graphene Oxide Data Set
C          1.36757         2.13828        -1.23448
C          1.32209         3.52283        -0.99874
C          2.55761         1.44257        -1.13216
C          2.48026         4.23872        -0.64890
C          1.23142         6.40949        -0.39942
C          1.17458         7.76215        -0.27145
C          2.47402         5.68004        -0.51389
C          2.37198         8.59149        -0.44873
C          1.16525        10.77800        -0.03102
C          1.18035        12.11286        -0.20148
C          2.41158        10.01785        -0.05157
C          2.50867        12.83062        -0.35454
C          1.31781        15.03706        -0.50645
C          1.27526        16.46018        -0.42534
C          2.40803        14.31598        -0.10200
C          2.43986        17.17816        -0.16057
C          2.48864        18.60761        -0.33711
C          3.75820         2.10533        -0.73350
C          3.71837         3.53214        -0.48322
C          4.96772         1.40491        -0.69559
C          4.90772         4.24447        -0.21285
C          3.69170         6.36924        -0.39509
C          3.70624         7.83928        -0.47259
C          4.92532         5.66812        -0.22551
C          4.91815         8.56801        -0.06848
C          3.60904        10.66747         0.15914
C          3.54190        12.13562         0.55459
C          4.87848         9.97191         0.13367
C          4.87901        12.85136         0.58431
C          3.54586        15.02475         0.59662
C          3.64788        16.47347         0.17368
C          4.86879        14.28212         0.58406
C          4.86545        17.14652         0.16427
C          3.67609        19.27619        -0.30351
C          4.91331        18.56909        -0.09697
C          6.16155         1.99121        -0.12217
C          6.14674         3.51835         0.09035
C          7.48272         1.27041        -0.30669
C          7.42297         4.25315         0.08914
C          6.15491         6.38154        -0.01666
C          6.12563         7.84044         0.06380
C          7.36923         5.66704         0.13037
C          7.31716         8.57690         0.25466
C          6.08735        10.68644         0.40652
C          6.06739        12.11700         0.66549
C          7.31061         9.97386         0.40251
C          7.32038        12.79913         1.03556
C          6.06036        15.01696         0.63911
C          6.10319        16.43402         0.38962
C          7.31292        14.34460         1.00444
C          7.33057        17.11610         0.34439
C          6.13514        19.22648        -0.14481
C          7.36751        18.53880         0.06215
C          8.71530         2.12482        -0.09677
C          8.66253         3.55184         0.06272
C          9.92864         1.46669        -0.15814
C          9.91156         4.29229         0.07538
C          8.62025         6.39905         0.55919
C          8.59698         7.83837         0.10783
C          9.90877         5.68941         0.21078
C          9.87813         8.57838         0.03878
C          8.59821        10.61202         0.88871
C          8.61658        12.11718         0.91053
C          9.87121        10.08857         0.17543
C          9.84397        12.81040         0.92702
C          8.58422        15.05571         0.84753
C          8.56858        16.40420         0.55694
C          9.87935        14.32155         1.16782
C          9.82184        17.20137         0.63036
C          8.58002        19.23376        -0.04909
C          9.83610        18.60716         0.17184
C         11.18057         2.16128        -0.12596
C         11.16407         3.59652        -0.06041
C         12.39387         1.46687        -0.18705
C         12.38636         4.31193        -0.11159
C         11.13480         6.43579         0.14122
C         11.14124         7.84013         0.18538
C         12.38442         5.73511        -0.04502
C         12.37400         8.61476        -0.17691
C         11.13593        10.62727         0.90070
C         11.07807        12.13772         0.80718
C         12.40376        10.01729         0.34757
C         12.30041        12.80774         0.23390
C         11.02252        14.98460         0.36173
C         11.11521        16.46020         0.68236
C         12.34214        14.28462         0.46979
C         12.37970        17.16545         0.38313
C         11.04807        19.24175        -0.05245
C         12.32916        18.58484         0.08006
C         13.64089         2.15209        -0.20227
C         13.63960         3.59147        -0.18620
C         14.86576         1.45853        -0.28869
C         14.86168         4.28145        -0.22634
C         13.61364         6.46681        -0.09957
C         13.64754         7.85073         0.02037
C         14.88357         5.76037        -0.49329
C         14.88322         8.56438         0.20699
C         13.60370        10.68134         0.48211
C         13.59308        12.12020         0.59533
C         14.86917         9.95778         0.44429
C         14.77845        12.83805         0.68148
C         13.54161        14.97730         0.45466
C         13.55516        16.44163         0.38456
C         14.79188        14.25280         0.48894
C         14.84144        17.15016         0.30067
C         13.49804        19.25421        -0.24275
C         14.80866        18.64238        -0.02312
C         16.09674         2.14777        -0.31959
C         16.08791         3.58108        -0.25331
C         17.34583         1.47252        -0.45657
C         17.32705         4.30242        -0.23792
C         16.13736         6.44994        -0.01921
C         16.11905         7.84417         0.26070
C         17.33477         5.74022        -0.01218
C         17.33266         8.52015         0.61798
C         16.07591        10.63243         0.77693
C         16.07247        12.12917         1.04397
C         17.28160         9.93563         0.86773
C         17.24242        12.72919         0.23996
C         16.04780        14.94364         0.29150
C         16.07092        16.37692         0.02050
C         17.24304        14.23806         0.29557
C         17.19259        16.99652        -0.51421
C         16.02375        19.32585        -0.63496
C         17.20731        18.40957        -0.89623
C         18.54329         2.18267        -0.52839
C         18.52521         3.60799        -0.39449
C         19.82396         1.50040        -0.64368
C         19.77693         4.38117        -0.46884
C         18.57572         6.41191         0.31552
C         18.54663         7.78781         0.69310
C         19.79345         5.71242         0.15823
C         19.76500         8.45532         1.31252
C         18.54553        10.69014         1.22784
C         18.56402        12.08166         0.60583
C         19.80720         9.91697         0.92890
C         19.73183        12.73282         0.39885
C         18.50094        14.95016         0.03743
C         18.43471        16.25605        -0.65255
C         19.76775        14.17182         0.00650
C         19.57638        16.79867        -1.20243
C         18.30192        18.93938        -1.49736
C         19.49478        18.12473        -1.92330
C         21.00569         2.16130        -0.68876
C         21.07064         3.63709        -0.69659
C         22.32944         4.33578        -0.34329
C         21.08752         6.29410         0.54739
C         21.09556         7.71833         1.07438
C         22.32979         5.59729         0.12304
C         22.32981         8.52730         0.94139
C         21.07124        10.64018         1.01775
C         21.05204        12.14404         0.74867
C         22.32521         9.87092         0.90334
C         22.24869        12.88351         0.27924
C         20.88016        14.60666        -0.92750
C         20.86352        16.11461        -1.15288
C         22.19049        14.00973        -0.45468
C         22.00305        16.84036        -1.37622
C         20.78472        18.89800        -1.85746
C         21.95358        18.26521        -1.62346
O          7.22118        13.59909         2.28094
O         21.21625         6.60522         2.01914
O          9.17687         8.11190        -1.21521
O          3.08829         8.34765        -1.70620
O         20.39964         4.29620        -1.82970
O         19.50654        15.00752         1.16621
O          6.00553         2.56568         1.21012
O         21.13456        11.67096         2.13434
O         15.03125        18.17704         1.34450
O         10.51286        16.94932         1.91444
O         12.27291         8.79570        -1.66257
H         12.38570         7.90846        -2.06826
O         18.51358        10.91374         2.68342
H         19.42028        11.22548         2.93022
O         19.28109        17.81463        -3.35362
H         18.45218        17.29429        -3.41550
O         20.54935        13.99233        -2.21437
H         21.19164        14.32053        -2.87855
O          2.97573        12.66404        -1.72370
H          2.28900        13.01857        -2.32566
O         15.64260        19.97472        -1.85886
H         15.50012        19.29303        -2.54656
O         16.25884        12.38597         2.44617
H         17.04587        11.86781         2.76386
O          8.56059         6.46775         2.02412
H          8.52712         5.54891         2.36538
O         11.20010        10.20658         2.28290
H         10.31307        10.34469         2.69808
O         12.12890        12.63417        -1.25476
H         11.61222        11.79893        -1.39152
O          8.63324        10.18479         2.29865
H          7.87357        10.60895         2.75264
O         16.97880        12.38962        -1.15757
H         17.74407        12.68474        -1.69542
O          7.53149         0.70100        -1.62865
H          7.76079         1.40807        -2.26578
O          3.15053        15.03562         2.03544
H          3.86351        15.49721         2.52818
O         19.52222         8.40324         2.75622
H         19.96869         7.59022         3.08811
O         10.14984        14.46133         2.57789
H          9.31435        14.27083         3.05719
O         10.63696        14.91408        -1.04598
H         11.05388        14.09509        -1.42540
O          9.91006        10.66100        -1.14870
H          9.60430         9.95990        -1.77203
O          3.04348        12.18362         1.91794
H          2.99291        13.13709         2.18171
O         14.92195         5.87138        -1.97213
H         14.23990         5.26273        -2.32808
H          0.44755         1.61189        -1.52485
H          0.36772         4.04844        -1.13577
H          2.58989         0.36253        -1.33417
H          0.29974         5.83580        -0.29535
H          0.21732         8.24033        -0.02038
H          0.20807        10.24083         0.03502
H          0.23489        12.67031        -0.26547
H          0.45276        14.52786        -0.95778
H          0.35864        16.99042        -0.71944
H          1.54898        19.14472        -0.53245
H          5.03717         0.40529        -1.14861
H          3.71166        20.36419        -0.45952
H          7.51109         0.40540         0.40683
H          6.16151        20.30662        -0.35315
H          9.93823         0.37356        -0.28058
H          8.55794        20.29698        -0.33334
H         12.38590         0.36760        -0.22977
H         11.04653        20.29432        -0.37539
H         14.85910         0.35985        -0.34592
H         13.45817        20.26665        -0.67077
H         17.35689         0.37451        -0.52568
H         16.34864        20.14197         0.06163
H         19.81451         0.39996        -0.65084
H         18.28508        19.99992        -1.79398
H         21.95327         1.60142        -0.69588
H         23.28181         3.81464        -0.52620
H         23.28866         6.07912         0.36133
H         23.28924         7.99145         0.90755
H         23.27665        10.41906         0.85124
H         23.23124        12.49922         0.59266
H         23.13409        14.48670        -0.76097
H         22.99358        16.36717        -1.32351
H         20.75886        19.97628        -2.07308
H         22.90144        18.82273        -1.62582
