         576
 CSIRO Nanostructure Databank - Neutral Graphene Oxide Data Set
C          6.17609        18.98887        -1.67830
C          6.29921        20.47797        -1.89537
C          4.97891        21.20708        -1.94383
C          6.14833        23.31135        -1.52376
C          4.94366        22.55146        -1.83963
C          6.20607        24.67630        -1.67683
C          8.40125        14.69316        -0.56697
C          8.36520        16.10395        -0.69211
C          7.23588        16.81502        -1.11141
C          8.46076        18.95839        -0.76816
C          7.26317        18.24176        -1.30765
C          8.39659        20.40176        -0.39561
C          7.28846        21.19494        -0.98836
C          8.41911        23.33981        -0.43587
C          7.27240        22.56308        -0.96910
C          8.54304        24.76748        -0.83909
C          7.40580        25.43971        -1.40335
C          8.69360        27.53881        -1.46795
C          7.49718        26.79661        -1.70823
C          8.82504        28.88400        -1.84449
C         10.86425        10.43800        -0.48688
C         10.84633        11.82668        -0.24066
C          9.63087        12.57532        -0.42073
C         10.94495        14.69872        -0.42713
C          9.61016        13.96613        -0.41323
C         10.75443        16.10049         0.15681
C          9.68464        16.79968        -0.64652
C         11.13545        19.00168        -0.69115
C          9.78215        18.26768        -0.87230
C         10.99270        20.54696        -0.50561
C          9.68817        21.06464         0.14287
C         10.96094        23.27381        -0.11589
C          9.63618        22.58865         0.00894
C         10.97215        24.75369        -0.28528
C          9.72005        25.47111        -0.60481
C         11.03596        27.56402        -0.62828
C          9.82765        26.86628        -0.88764
C         11.13563        28.95021        -0.93883
C         10.02927        29.59825        -1.61772
C         11.34199        31.67748        -1.79332
C         10.18094        30.91446        -2.08085
C         11.49943        32.95609        -2.34297
C         13.40873         6.11804        -0.71037
C         13.45682         7.62093        -0.86938
C         12.13784         8.33728        -0.79585
C         13.21366        10.27369         0.29799
C         12.05381         9.65285        -0.39045
C         13.16483        11.72290         0.67491
C         12.02403        12.51865         0.20040
C         13.17579        14.63712         0.73151
C         12.07370        13.94216         0.24693
C         13.14159        16.13013         1.03187
C         12.02182        16.88754         0.34987
C         13.29959        18.97914         0.63256
C         12.08996        18.24915         0.22118
C         13.25740        20.42209         0.72331
C         12.17048        21.15148         0.26543
C         13.28570        23.31082         0.79577
C         12.15068        22.57369         0.41536
C         13.20906        24.81663         0.96692
C         12.13641        25.51297         0.16980
C         13.36769        27.63082         0.29362
C         12.17125        26.88454        -0.02583
C         13.42499        29.00880         0.00854
C         12.30453        29.68060        -0.61480
C         13.52379        31.81705        -0.63785
C         12.39284        31.07716        -0.97459
C         13.63863        33.23796        -0.98306
C         12.53926        33.85840        -1.89703
C         14.10163        35.67077        -2.61467
C         12.87944        35.08241        -2.66895
C         14.41235        36.90237        -3.33824
C         15.81893         6.03358        -0.13932
C         14.51920         5.39636        -0.49525
C         15.80826         7.52181         0.14199
C         14.55891         8.27630        -0.06528
C         15.76336        10.36178         0.48667
C         14.53712         9.61040         0.23050
C         15.74527        11.74537         0.78982
C         14.44434        12.41369         1.04349
C         15.71501        14.60872         1.11683
C         14.41373        13.90941         1.12256
C         15.62964        16.05818         1.38325
C         14.49262        16.78982         0.68436
C         15.71484        18.99436         1.19566
C         14.45152        18.28054         0.92984
C         15.69258        20.44844         1.43120
C         14.36040        21.14752         1.47437
C         15.71103        23.29404         1.26622
C         14.46117        22.62289         1.15263
C         15.81112        24.73875         0.80722
C         14.52795        25.52368         0.83108
C         15.79838        27.65361         0.90978
C         14.55949        26.91092         0.70933
C         15.77159        29.08041         0.78923
C         14.62827        29.73307         0.31488
C         15.88906        31.98763         0.33716
C         14.60370        31.20152         0.15194
C         16.03760        33.27096        -0.38319
C         14.98063        33.85048        -1.03752
C         16.39112        35.85779        -1.53700
C         15.29068        34.95620        -2.02141
C         16.45673        37.29997        -1.95299
C         15.53106        37.61578        -3.10086
C         18.26242         6.19709        -0.49942
C         17.10613         5.45905        -0.53928
C         18.24045         7.61278        -0.20291
C         17.06497         8.27867         0.07178
C         18.21229        10.45796         0.42350
C         17.01692         9.71717         0.30373
C         18.20606        11.85058         0.64866
C         16.94948        12.49708         0.83837
C         18.18814        14.66756         1.14527
C         16.92430        13.93416         1.07298
C         18.16140        16.03132         1.56891
C         16.88118        16.75253         1.76864
C         18.04671        18.95381         2.32036
C         16.94559        18.23490         1.56723
C         18.12588        20.41992         1.88513
C         16.87973        21.14062         1.64226
C         18.21973        23.29211         1.36332
C         16.88716        22.58950         1.52566
C         18.19474        24.75724         1.76828
C         16.93235        25.50528         1.47882
C         18.25350        27.60524         1.33886
C         16.98867        26.96880         1.26061
C         18.29680        29.08717         1.30942
C         17.00628        29.84215         1.10112
C         18.31955        31.93115         0.70838
C         17.12253        31.24928         0.65310
C         18.35175        33.34658         0.41834
C         17.30540        33.95875        -0.25325
C         18.62443        36.05056        -0.56533
C         17.41245        35.32282        -0.75606
C         18.90147        37.20954        -1.37537
C         17.88090        37.76019        -2.13667
C         20.80067         6.24239        -0.33838
C         19.57246         5.52317        -0.87303
C         20.73488         7.63637        -0.15233
C         19.49128         8.43449        -0.39190
C         20.73631        10.53359         0.27899
C         19.49969         9.68587         0.49734
C         20.68942        11.97579         0.43401
C         19.45501        12.61718         0.62773
C         20.63073        14.83967         0.61654
C         19.42621        14.04672         0.81475
C         20.50162        16.25680         0.94230
C         19.33235        16.78904         1.57262
C         20.64125        18.94318         2.18518
C         19.35639        18.16634         2.15981
C         20.55028        20.43471         2.33940
C         19.31807        21.10142         2.04106
C         20.64555        23.33885         2.24404
C         19.34307        22.58166         2.07798
C         20.70568        24.77328         1.89449
C         19.48942        25.48670         1.74261
C         20.77210        27.56294         1.38045
C         19.45975        26.88120         1.49714
C         20.84462        29.04951         1.11460
C         19.55024        29.78222         0.77272
C         20.68459        31.93902         1.45221
C         19.56426        31.25925         1.07877
C         20.64825        33.42680         1.55395
C         19.46805        34.14421         0.94720
C         20.92044        36.27584         0.51055
C         19.59841        35.57817         0.41697
C         21.23299        37.30954        -0.50990
C         20.24749        37.74756        -1.37593
C         23.19438         6.20522         0.49132
C         21.97048         5.53210        -0.06914
C         23.24814         7.66084         0.08273
C         21.97108         8.41272        -0.09069
C         23.18266        10.59182         0.39075
C         21.92552         9.87017         0.12048
C         23.13961        12.05526         0.23299
C         21.92357        12.74534         0.29626
C         23.15610        14.89438         0.01831
C         21.86887        14.20603         0.25914
C         23.25891        16.27781        -0.27759
C         21.42992        17.23798         0.53367
C         22.78400        19.24146         0.85911
C         21.68130        18.45085         1.22966
C         23.45093        20.19886         1.68175
C         21.69666        21.16850         2.58845
C         23.15049        23.18414         2.10879
C         21.90626        22.57123         2.33077
C         23.18221        24.63427         1.99655
C         21.98199        25.39301         1.90994
C         23.28920        27.56512         1.55908
C         21.97641        26.91613         2.04977
C         23.24535        29.08983         1.79231
C         22.03278        29.78402         1.58556
C         23.17858        32.00682         1.99339
C         21.87732        31.21973         2.07753
C         23.21076        33.37378         1.84588
C         21.95245        34.17262         1.72108
C         23.42192        36.16459         1.02647
C         22.06819        35.59593         1.21815
C         23.60343        37.36049         0.24918
C         22.55520        37.86123        -0.51841
C         25.61082         6.26016        -0.31750
C         24.44000         5.53490         0.00300
C         25.65999         7.72793        -0.14191
C         24.52213         8.39491         0.25191
C         25.86441        10.53030         0.59512
C         24.49590         9.84352         0.53863
C         25.75478        12.10156         0.49154
C         24.44096        12.68861        -0.14415
C         25.63636        14.87300        -0.02273
C         24.40450        14.18857         0.00985
C         25.66463        16.28365        -0.10612
C         24.47641        17.00507        -0.29235
C         25.64832        19.21307         0.01654
C         24.54518        18.46183        -0.30404
C         25.59334        20.70504         0.39797
C         24.44996        21.08202         1.34700
C         25.72521        23.21729         1.81034
C         24.49702        22.39204         2.16449
C         25.67450        24.65024         2.03459
C         24.46370        25.32744         2.02912
C         25.69989        27.58032         2.41434
C         24.44102        26.81884         2.21802
C         25.67088        29.08019         2.38441
C         24.40560        29.78515         2.15869
C         25.70443        31.94805         1.95337
C         24.42992        31.27424         2.45081
C         25.68659        33.37570         1.82551
C         24.46250        34.11447         1.89364
C         25.73862        36.30478         1.79309
C         24.48144        35.53315         1.70313
C         25.75322        37.79137         1.51760
C         24.81707        38.21930         0.44316
C         27.98300         6.22500        -1.25474
C         26.75796         5.56979        -0.69418
C         27.97214         7.75637        -1.13668
C         26.84812         8.47853        -0.49799
C         28.10089        10.60055        -0.61336
C         26.90509         9.85974        -0.30606
C         28.07459        12.03342        -0.61872
C         26.92238        12.72711        -0.24977
C         28.11141        14.85480        -0.19992
C         26.91671        14.16919        -0.18181
C         28.18283        16.29221         0.21583
C         26.93021        17.01403        -0.22517
C         28.23651        19.14663         0.23823
C         26.94879        18.52123        -0.14190
C         28.18506        20.64485         0.39861
C         26.90124        21.08996         1.16224
C         28.23424        23.14151         1.92606
C         26.89628        22.57675         1.48466
C         28.26512        24.66782         2.09313
C         26.96472        25.40682         1.93029
C         28.25203        27.68898         2.04453
C         26.98802        26.89562         2.09196
C         28.17930        29.03257         1.80504
C         26.96328        29.81929         2.12009
C         28.11091        31.93666         1.36820
C         26.90103        31.25996         1.77324
C         28.06702        33.34991         1.15570
C         26.87390        34.03481         1.42971
C         27.78556        36.03415         0.30208
C         26.92889        35.50292         1.38967
C         27.42474        37.29998        -0.43307
C         26.37485        38.19720         0.20247
C         30.48722         6.27540        -0.79294
C         29.28278         5.60566        -0.78529
C         30.55098         7.71118        -0.96688
C         29.30370         8.47446        -1.11334
C         30.56442        10.58585        -0.94849
C         29.33170         9.91841        -0.82843
C         30.54918        12.00159        -1.45919
C         29.27694        12.77192        -1.09101
C         30.62821        14.84786        -0.28315
C         29.34174        14.23581        -0.70548
C         30.65884        16.17618         0.10906
C         29.45728        17.01493        -0.27657
C         30.65107        19.07252         0.68131
C         29.41797        18.44353         0.24873
C         30.69571        20.43053         0.94018
C         29.47430        21.22008         0.94670
C         30.72088        23.32974         1.02141
C         29.46530        22.54804         1.27846
C         30.77244        24.75868         1.50412
C         29.54935        25.44819         2.00538
C         30.59076        27.50023         1.03396
C         29.60397        26.98817         2.09309
C         30.54964        29.02141         0.83757
C         29.30804        29.76976         1.18479
C         30.46177        31.92058         0.60407
C         29.31892        31.24639         1.13880
C         30.41170        33.33716         0.41915
C         29.23376        34.05198         0.66627
C         30.07496        36.03559        -0.58046
C         29.10306        35.40360         0.17437
C         29.79153        37.28042        -1.27490
C         28.56258        37.90861        -1.16800
C         32.92830         6.23931        -0.54386
C         31.74015         5.57733        -0.56711
C         32.99738         7.67662        -0.69052
C         31.75469         8.40289        -0.85369
C         33.02954        10.52884        -0.91629
C         31.78520         9.84584        -0.94622
C         33.08158        11.95708        -0.93040
C         31.88352        12.83819        -1.29152
C         33.03063        14.61545         0.01491
C         31.82577        14.05624        -0.36140
C         33.09818        15.80050         0.87060
C         31.81419        16.73675         0.80316
C         33.12197        18.98591         0.66864
C         31.86600        18.24797         1.10543
C         33.31201        20.32009         1.35899
C         31.95643        21.08203         1.42056
C         33.22515        23.32967         1.18033
C         31.97442        22.58415         1.44865
C         33.18156        24.68148         0.94203
C         31.93716        25.41656         1.21029
C         33.15798        27.60885         0.68694
C         31.97399        26.89956         1.25173
C         33.10701        29.10393         0.47212
C         31.80307        29.82984         0.70540
C         32.81863        31.89642        -0.23856
C         31.67438        31.23578         0.28998
C         32.76682        33.27980        -0.52073
C         31.60844        34.04257        -0.05105
C         32.42490        35.97692        -1.55791
C         31.43039        35.48015        -0.59349
C         32.08697        37.21652        -2.22643
C         30.87990        37.83703        -2.06815
C         34.20148         8.35813        -0.66857
C         35.48388        10.46637        -0.68534
C         34.26170         9.78920        -0.76746
C         35.54033        11.88956        -0.65480
C         34.29368        12.60278        -0.74920
C         35.55510        14.80100        -0.38123
C         34.27936        14.06927        -0.57052
C         35.55493        16.04644         0.43410
C         34.44751        16.36506         1.18836
C         35.46074        19.04929        -0.07884
C         34.10358        18.49012        -0.16052
C         35.51556        20.47105         0.16717
C         34.41001        21.12637         0.71623
C         35.40410        23.23045        -0.00903
C         34.53453        22.58961         1.07213
C         35.47257        24.73253         0.01572
C         34.35893        25.40806         0.42797
C         35.23300        27.53446        -0.78549
C         34.06554        26.75618        -0.17825
C         35.22184        29.02030        -0.92849
C         34.11917        29.79822        -0.33232
C         35.14730        31.84567        -1.21415
C         34.02420        31.15353        -0.58072
C         34.98926        33.22209        -1.54130
C         33.81595        33.93924        -1.23698
C         33.59720        35.27548        -1.75570
C         36.75441        12.59434        -0.53210
C         38.02064        14.69052        -0.25842
C         36.82761        14.01732        -0.40260
C         38.06922        16.16204        -0.08633
C         36.78814        16.88813         0.30654
C         37.89326        19.02519        -0.37935
C         36.67756        18.32388        -0.09166
C         37.90902        20.44824        -0.43011
C         36.77178        21.15771        -0.02094
C         37.98268        23.39825        -0.39775
C         36.77008        22.61604         0.09646
C         37.79618        24.68128        -1.08366
C         36.42644        25.34122        -1.00209
C         37.44994        27.48153        -1.99217
C         36.59155        26.86887        -0.84938
C         37.55290        28.99117        -1.78627
C         36.46229        29.72933        -1.36124
C         36.34447        31.15551        -1.48564
C         39.12121        16.92862        -0.75806
C         40.17452        19.06187        -1.38945
C         39.09123        18.31164        -0.78461
C         40.21704        20.44139        -1.43174
C         39.11695        21.17616        -0.80600
C         40.49883        23.45049        -2.11591
C         39.15612        22.54106        -0.63676
C         39.85154        24.53494        -2.62536
C         38.78767        25.30591        -1.92972
C         38.71020        26.67115        -2.19480
C         41.18710        21.08033        -2.32392
C         41.24999        22.37758        -2.75238
O         12.83584        10.67670         1.66099
O         29.08868        13.81263        -2.09285
O         34.85975        14.87799        -1.68289
O         15.77271         6.54210         1.24535
O         14.88234        31.94818         1.40047
O         23.70371        10.15809         1.73054
O         12.57790        34.08715        -0.44493
O         11.92031        18.84495        -1.86196
O         22.82103        20.40821         2.93461
O         31.96501        35.22428         0.74000
O          8.03115        19.36677         0.58873
O         37.82260        16.64714         1.30389
O          9.92245        17.33376        -1.98188
O         26.92665        26.25954         0.73275
O         34.75266        28.13457        -2.03359
O         26.48306        29.60494         3.50616
O         21.24747        36.61063         1.89251
O         22.10684        16.96975        -0.66373
O         19.70918        23.10105         3.37870
O         15.91899        16.35134         2.80155
O         29.02087        24.98145         3.31424
O         32.16239        15.89942         1.97107
O         27.01483        17.80960        -1.45049
O         25.99015        12.66530         1.74893
O         11.27832        23.82621        -1.44163
O         33.33443        26.23137        -1.29358
O         32.16538        13.42879        -2.53657
O         20.23303        18.17461         3.35513
O         37.60664        23.31300         1.04830
O         16.79600        18.62207         0.17640
O         31.83352        21.81768         2.68524
O         22.80959         7.97047        -1.28115
O         40.36413        23.22588        -0.72593
O         33.04329        27.35254         2.12627
O         18.99935        35.28217         1.72025
O         17.26252        25.08475         2.83921
O         26.79544        36.02424         2.76436
O         29.59430        29.31711        -0.22892
O          8.74069        23.16624         1.00874
O         32.80285        29.74805         1.76021
O         24.89081        27.14110         3.57303
O         28.50644         8.31745        -2.37444
O         26.98449        36.01666        -0.96250
O         21.09128        28.04616         0.02791
O         23.29544        19.10212        -0.43050
O         14.30903        13.07082         2.34876
O         17.60440        29.66667         2.44542
O         21.05446        33.96069         2.85589
O         12.91714        16.23341         2.46511
H         13.68388        15.83918         2.93874
O         17.68572        18.95694         3.71435
H         18.52035        18.89912         4.23375
O         26.86383        20.35326         2.40332
H         27.32700        20.89819         3.08411
O         28.22758        16.34269         1.67048
H         27.60379        15.67275         2.02482
O         31.88126        18.32253         2.57589
H         31.11386        17.80624         2.90682
O          9.81190        20.77296         1.54090
H          9.06547        21.20992         2.00534
O         24.60373        12.40054        -1.57537
H         23.86958        12.82870        -2.06495
O         24.44563        31.40542         3.90609
H         25.19255        30.84563         4.23046
O         30.16335        27.32469         3.37601
H         29.77370        26.71675         4.04342
O         15.88880        34.25398        -3.19111
H         15.16132        33.80432        -3.67172
O         10.99441        21.09419        -1.83348
H         11.49563        20.41956        -2.37698
O         15.92979        38.09354        -0.81565
H         16.49729        37.90503        -0.03698
O         29.50489        17.06910        -1.71116
H         28.68206        17.50935        -2.03524
O         23.14451         6.18877         1.95831
H         23.22268         5.25898         2.25659
O         36.84102        27.32814        -3.30153
H         35.88003        27.56087        -3.21514
O         19.53120         8.89802        -1.77427
H         19.84203         8.16285        -2.34283
O         13.91489         7.80794        -2.27039
H         13.80157         8.75540        -2.49814
O         14.70960        16.57967        -0.73296
H         15.27745        17.30652        -1.07004
O         35.72554        25.13518        -2.27464
H         34.81116        25.55005        -2.15042
O         35.20382        22.62357         2.35236
H         34.74650        21.97473         2.93767
O         30.45600        11.73111        -2.87889
H         31.04594        12.42938        -3.29744
O         33.78977        17.52453        -1.06351
H         34.57145        17.14442        -1.51751
O         12.80415        24.97849         2.38350
H         12.83826        25.93585         2.59700
O         34.51451        17.23912         2.21020
H         33.61259        17.37025         2.59728
O         19.59448         9.18191         1.86049
H         19.60504         9.94496         2.47561
O         34.82077        22.82960        -1.27520
H         35.06398        23.52134        -1.94759
O         23.54148        27.29563         0.16733
H         22.76360        27.61506        -0.35128
O         28.30982        22.57953         3.28997
H         28.86547        23.20102         3.82181
O         16.21582        24.66292        -0.61759
H         15.46313        24.28795        -1.12472
O         19.38407        29.74718        -0.67800
H         19.87688        28.95668        -1.00466
O         25.94920        38.59001         2.66188
H         26.42029        38.03807         3.32342
O         24.73440        22.09652         3.56285
H         24.08517        21.40754         3.83945
O         26.39314        10.24233         1.90516
H         26.34106        11.11989         2.38624
O         10.19031        15.93630         1.48888
H         10.92706        15.95413         2.14382
O         19.56111         4.15298        -0.47251
H         19.36623         4.11597         0.48636
O         21.54732        31.12864         3.49366
H         21.48127        32.05062         3.83406
O         37.23635        27.15300         0.40519
H         38.01005        26.55924         0.50830
O         28.16134        21.18522        -0.95077
H         27.22839        21.22330        -1.27117
O         21.84683        27.19995         3.45782
H         22.69271        26.99099         3.91149
O          6.88873        20.61284        -3.24363
H          6.29108        20.16196        -3.87683
O         27.93852         5.87852        -2.67923
H         28.28616         6.67039        -3.16039
O         30.19323        26.88977        -0.21328
H         29.62412        27.53409        -0.69833
O         25.50005        21.49442        -0.81131
H         24.74648        21.15542        -1.33958
O         18.55574        23.24162        -0.05256
H         17.81221        23.67592        -0.54469
O         11.33384        14.84889        -1.81146
H         11.31778        13.96821        -2.23846
O         33.77833        20.15924         2.73163
H         33.04090        19.73202         3.22736
O         13.94406        21.08564         2.89503
H         14.54539        21.66602         3.40970
O         30.76507        23.40343        -0.44300
H         31.26667        24.20290        -0.71714
H          5.23598        18.49230        -1.96899
H          4.06748        20.63906        -2.18673
H          4.00199        23.10366        -1.98037
H          5.33111        25.21320        -2.07380
H          7.45971        14.12547        -0.64850
H          6.29387        16.27646        -1.30267
H          6.63656        27.31093        -2.16128
H          7.98640        29.39584        -2.33931
H          9.94724         9.95868        -0.86050
H          8.69124        12.01635        -0.55315
H          9.36561        31.38158        -2.65266
H         10.82693        33.27915        -3.15190
H         12.45318         5.61312        -0.91869
H         11.26623         7.85754        -1.26770
H         12.06478        35.56914        -3.22920
H         13.69492        37.24002        -4.10290
H         14.47067         4.29593        -0.47996
H         15.72439        38.53774        -3.66996
H         17.14179         4.42030        -0.90194
H         18.06885        38.67248        -2.72241
H         19.65920         5.52225        -1.99732
H         20.48305        38.54648        -2.09473
H         21.96984         4.43955        -0.20611
H         22.74019        38.73420        -1.16220
H         24.43593         4.44556        -0.16023
H         24.52259        39.28300         0.48546
H         26.71050         4.47293        -0.77843
H         26.71461        39.24780         0.19912
H         29.28705         4.51349        -0.64411
H         28.42622        38.90154        -1.62406
H         33.86766         5.68594        -0.39803
H         31.70938         4.48572        -0.43763
H         32.84379        37.66921        -2.88469
H         30.69000        38.78224        -2.59834
H         35.14147         7.79888        -0.54775
H         36.41628         9.88910        -0.59538
H         35.80376        33.73480        -2.07556
H         34.36368        35.69108        -2.42817
H         37.69582        12.02359        -0.50246
H         38.97332        14.13974        -0.31208
H         38.41645        29.52082        -2.22091
H         37.19944        31.72044        -1.88867
H         39.96128        16.38738        -1.21876
H         40.97407        18.48396        -1.87888
H         40.01427        24.80681        -3.67940
H         39.49536        27.11888        -2.82506
H         41.84211        20.36381        -2.84769
H         41.90332        22.61740        -3.60579
