         598
 CSIRO Nanostructure Databank - Neutral Graphene Oxide Data Set
C         23.15943        70.06147         0.82442
C         23.10511        71.44206         0.87757
C         21.92626        72.19002         0.58612
C         23.15820        74.30897         0.67095
C         21.96022        73.57740         0.52328
C         25.62187        65.74775         0.60074
C         25.56246        67.12898         0.87719
C         24.37824        67.88429         0.87847
C         25.58081        70.00361         1.25313
C         24.37922        69.30494         1.04351
C         25.58682        71.46506         1.03047
C         24.31878        72.20966         1.35760
C         25.60193        74.35829         0.97415
C         24.37620        73.66730         0.94841
C         27.91057        61.38295         0.73758
C         27.98038        62.79828         0.99739
C         26.83066        63.57939         0.71240
C         28.06599        65.66623         1.02869
C         26.82756        64.98906         0.75180
C         28.10715        67.15787         0.77166
C         26.82706        67.80387         1.24908
C         28.15059        70.02328         1.30609
C         26.85392        69.30390         1.43531
C         28.12666        71.49922         1.36147
C         26.86813        72.21980         1.02085
C         28.07746        74.38762         0.95170
C         26.86061        73.70892         1.06979
C         30.50167        57.12624         1.12698
C         30.44169        58.53565         1.16978
C         29.16813        59.14683         0.85073
C         30.62110        61.52786         1.68915
C         28.82035        60.44523         1.25164
C         30.48832        62.89583         1.46093
C         29.18603        63.50511         1.38179
C         30.41942        65.60974         1.93860
C         29.18535        64.93277         1.38778
C         30.29370        67.10193         1.89432
C         29.31466        67.86128         1.35401
C         30.60130        70.06944         1.03141
C         29.35751        69.34540         1.31954
C         30.59773        71.49591         0.80337
C         29.40713        72.27305         1.18167
C         30.51024        74.36644         0.48474
C         29.33707        73.71760         0.84264
C         32.96623        52.81266         1.23895
C         32.95492        54.24495         1.29976
C         31.72782        54.97959         1.35691
C         32.93337        57.13604         1.31153
C         31.70863        56.39727         1.28399
C         32.90777        58.53415         1.28512
C         31.68464        59.26866         1.33756
C         32.92352        61.42151         1.01918
C         31.76298        60.72186         1.35684
C         32.89581        62.88087         0.79140
C         31.70219        63.67139         1.20494
C         33.03926        65.77893         1.25921
C         31.71929        65.03766         1.31852
C         33.08334        67.23765         0.91812
C         32.14365        68.13070         1.39921
C         32.78460        69.93515        -0.14678
C         31.82030        69.38684         0.80108
C         32.80295        71.46387        -0.32327
C         31.70253        72.19529         0.30983
C         32.90522        74.28701        -0.15677
C         31.73064        73.64382         0.23905
C         35.42557        48.48660         1.24923
C         35.42760        49.92589         1.28696
C         34.21148        50.64681         1.30616
C         35.42223        52.75556         1.07550
C         34.17975        52.06273         1.21610
C         35.38371        54.22761         0.75704
C         34.17610        54.95067         1.26601
C         35.42610        57.14335         0.98036
C         34.23814        56.42289         1.60026
C         35.41826        58.49698         0.79871
C         34.21046        59.25216         1.22875
C         35.42500        61.40099         0.49634
C         34.21952        60.73960         1.04560
C         35.46197        62.78554         0.40546
C         34.20800        63.57218         0.57381
C         35.59984        65.74690         0.58781
C         34.30257        65.01391         0.96558
C         35.32895        67.08437        -0.07353
C         34.15998        67.77037         0.10626
C         35.26246        69.94760        -0.80322
C         34.03505        69.16112        -0.43008
C         35.26595        71.42779        -0.81586
C         34.08771        72.14469        -0.57665
C         35.33082        74.23918        -0.71467
C         34.11610        73.57744        -0.47906
C         37.64524        44.13577         0.70097
C         37.78115        45.54528         0.92144
C         36.59889        46.32555         0.94249
C         37.90256        48.40431         1.24445
C         36.59251        47.72762         1.14610
C         37.94850        49.91696         1.25515
C         36.65940        50.64796         1.21004
C         37.92639        52.78458         0.96413
C         36.63751        52.05279         1.07562
C         37.90515        54.21212         0.60687
C         36.69277        54.93524         1.00970
C         37.87338        57.07919         0.27807
C         36.70888        56.42842         0.89811
C         37.77399        58.45905        -0.07255
C         36.57652        59.20295         0.25473
C         37.58497        61.27847        -0.70052
C         36.53653        60.59754         0.08255
C         37.66476        62.74471        -0.67386
C         36.62374        63.47524        -0.11726
C         37.68021        65.58476        -0.78078
C         36.61029        64.92927        -0.20637
C         37.62878        67.03103        -1.17448
C         36.57024        67.80662        -0.44698
C         37.77794        69.92952        -1.22862
C         36.57894        69.26987        -0.66494
C         37.73974        71.37471        -1.27060
C         36.51277        72.09232        -1.02201
C         37.76199        74.20358        -1.17859
C         36.53091        73.52701        -0.99202
C         40.30933        39.85522         0.62951
C         40.23018        41.26855         0.76873
C         38.93763        41.89098         0.61521
C         40.47182        44.22242         1.13329
C         38.64636        43.19635         1.03633
C         40.32551        45.57301         0.74592
C         39.07119        46.25023         0.88468
C         40.27785        48.36902         0.42774
C         39.10508        47.66403         0.81573
C         40.28893        49.82735         0.30795
C         39.17369        50.55038         0.72281
C         40.30639        52.68112         0.01772
C         39.21427        52.01163         0.72974
C         40.13894        54.07496        -0.37321
C         39.01589        54.88466         0.14897
C         40.19823        56.98365        -0.55390
C         39.01569        56.32045        -0.04361
C         40.14889        58.41679        -0.76364
C         38.91953        59.09613        -0.63535
C         40.06326        61.20971        -1.54494
C         38.80775        60.48106        -1.13251
C         40.02367        62.70557        -1.73487
C         38.68664        63.43466        -1.56809
C         40.05578        65.56047        -1.34441
C         38.86074        64.87822        -1.19683
C         40.11667        67.01104        -1.27761
C         38.95744        67.74573        -1.21121
C         40.22289        69.84357        -1.56881
C         38.94877        69.18464        -1.37970
C         40.18989        71.32637        -1.72714
C         38.94135        72.07494        -1.47739
C         40.21654        74.21317        -1.34319
C         38.96902        73.50738        -1.38506
C         42.82600        35.64356         0.20967
C         42.74183        36.99237         0.56626
C         41.52921        37.71366         0.51713
C         42.76932        39.81165         0.86979
C         41.51044        39.11285         0.72117
C         42.73098        41.24885         0.58713
C         41.47614        41.99871         0.79809
C         42.79722        44.12136         0.49893
C         41.57199        43.40821         0.76919
C         42.75593        45.53023         0.26780
C         41.50120        46.25004         0.29737
C         42.61686        48.33938        -0.45486
C         41.44514        47.64458         0.09143
C         42.66037        49.80904        -0.48524
C         41.46459        50.52666        -0.18562
C         42.61036        52.66408        -0.86687
C         41.43600        51.95559        -0.37704
C         42.61790        54.04030        -1.01780
C         41.35656        54.80106        -0.92591
C         42.50811        56.93506        -1.55637
C         41.35819        56.26138        -0.85670
C         42.65990        58.38365        -1.06999
C         41.34873        59.14209        -1.11852
C         42.58282        61.25640        -1.58874
C         41.35315        60.50609        -1.35361
C         42.53649        62.70804        -1.94952
C         41.29853        63.48712        -1.70366
C         42.50966        65.75894        -1.75477
C         41.30575        64.85224        -1.57766
C         42.62032        66.91739        -0.73209
C         41.46320        67.63322        -1.49489
C         42.62052        69.90129        -1.10324
C         41.41543        69.14199        -1.52751
C         42.70631        71.36460        -1.24090
C         41.49709        72.10939        -1.62029
C         42.65950        74.21774        -0.99839
C         41.44663        73.55740        -1.31443
C         45.36498        33.04538        -0.72727
C         44.13585        33.64958        -0.47397
C         45.29366        35.60520         0.41483
C         44.07620        34.95435         0.08373
C         45.25427        36.90557         1.09246
C         43.94602        37.67752         1.10236
C         45.23102        39.89159         1.20667
C         43.98736        39.16315         1.07631
C         45.28487        41.28301         0.99486
C         44.06282        41.99145         0.57233
C         45.25133        44.17739         0.63284
C         44.03794        43.46006         0.59794
C         45.22335        45.58498         0.33217
C         43.97484        46.21006         0.06462
C         45.18503        48.36723        -0.47158
C         43.95295        47.57902        -0.45799
C         45.12551        49.75457        -0.74934
C         43.86958        50.44968        -0.80525
C         45.12332        52.63774        -0.99765
C         43.84479        51.88458        -1.27507
C         45.11644        54.06586        -1.11042
C         43.85088        54.79379        -1.25640
C         45.07129        56.93456        -1.62715
C         43.81869        56.16270        -1.45244
C         45.06012        58.39315        -1.52718
C         43.77460        59.09749        -1.85321
C         45.09898        61.28745        -1.89861
C         43.78071        60.59598        -1.63234
C         45.06240        62.78598        -1.69590
C         43.83302        63.48371        -2.07980
C         45.11240        65.70238        -1.86683
C         43.80342        65.00425        -2.10499
C         45.06237        67.11696        -1.41605
C         43.91855        67.69141        -0.97319
C         45.14355        69.93779        -0.82688
C         43.89172        69.15693        -0.75335
C         45.10565        71.35088        -0.71656
C         43.85811        72.05648        -0.88928
C         45.08427        74.19191        -0.56970
C         43.87073        73.51510        -0.83664
C         46.56146        33.71856        -0.46762
C         47.76842        35.74246         0.30716
C         46.54829        35.01546         0.10001
C         47.80125        37.04764         0.80969
C         46.53794        37.65902         1.30061
C         47.79717        39.91356         1.51616
C         46.49239        39.15379         1.48799
C         47.76144        41.42106         1.48528
C         46.47764        42.08211         1.12858
C         47.72487        44.25586         0.97318
C         46.47267        43.46340         0.88590
C         47.69816        45.72974         0.58912
C         46.42189        46.33789         0.19187
C         47.65120        48.40858        -0.37974
C         46.41369        47.69773        -0.21731
C         47.61000        49.79938        -0.67215
C         46.36356        50.48585        -0.80757
C         47.58792        52.61693        -0.84172
C         46.33846        51.91694        -0.89540
C         47.55906        54.08322        -0.66378
C         46.30732        54.78478        -0.97566
C         47.60645        56.96937        -0.96321
C         46.38904        56.20023        -1.31795
C         47.50897        58.40392        -0.68024
C         46.18348        59.11804        -0.96764
C         47.38308        61.36119        -0.56536
C         46.16275        60.62386        -1.01228
C         47.43444        62.84775        -0.83183
C         46.40509        63.46702        -1.77894
C         47.58374        65.65667        -1.48527
C         46.37099        64.96737        -1.63329
C         47.61841        67.13900        -1.61827
C         46.31830        67.89344        -1.54833
C         47.59457        69.98165        -0.92163
C         46.36080        69.29096        -1.08089
C         47.54410        71.36177        -0.57735
C         46.32676        72.06669        -0.58816
C         47.53161        74.21072        -0.22286
C         46.31903        73.51641        -0.44081
C         48.98002        37.81966         0.77956
C         50.21213        39.91294         0.83181
C         49.04102        39.20931         1.08913
C         50.36424        41.35455         1.01805
C         49.05255        42.17018         1.30537
C         50.19861        44.24814         0.56804
C         49.02725        43.56897         0.87840
C         50.17318        45.66268         0.22896
C         48.95553        46.37057         0.16292
C         50.12964        48.41825        -0.55165
C         48.90784        47.72785        -0.26611
C         50.09710        49.83235        -0.78550
C         48.85106        50.51469        -0.78428
C         50.06888        52.68244        -1.04574
C         48.80206        51.94077        -0.86269
C         50.10036        54.17517        -1.02390
C         48.83453        54.86737        -0.67211
C         50.05440        57.05939        -0.63220
C         48.81411        56.33759        -0.81108
C         49.97460        58.49782        -0.39908
C         48.76246        59.15599        -0.44791
C         49.94535        61.39454        -0.03397
C         48.65677        60.61990        -0.16876
C         49.97115        62.81651        -0.50695
C         48.70605        63.60021        -0.64786
C         50.01643        65.73442        -0.93994
C         48.78214        64.98536        -1.15475
C         50.05462        67.16516        -1.26495
C         48.86496        67.87841        -1.30076
C         50.10473        69.95771        -0.82401
C         48.85428        69.28665        -1.05766
C         50.09557        71.34531        -0.30568
C         48.76211        72.06530        -0.14869
C         49.99312        74.18714         0.16217
C         48.77372        73.54100        -0.08039
C         51.46178        42.11105         0.43677
C         52.63755        44.22877         0.08541
C         51.44755        43.50794         0.39338
C         52.65351        45.61866        -0.10379
C         51.38683        46.33831        -0.11610
C         52.62056        48.34506        -0.87763
C         51.35653        47.69169        -0.48882
C         52.61620        49.86716        -1.00526
C         51.33505        50.58948        -0.84840
C         52.56445        52.76406        -0.68584
C         51.33394        51.96669        -0.85083
C         52.56881        54.24157        -0.85461
C         51.36188        54.93475        -0.83621
C         52.54547        57.11399        -0.66875
C         51.27539        56.36078        -0.69022
C         52.49284        58.54957        -0.24670
C         51.19390        59.18676         0.20554
C         52.44791        61.36745         0.05199
C         51.26874        60.69161        -0.02285
C         52.49267        62.88675         0.09317
C         51.27676        63.51604        -0.54330
C         52.61784        65.63215        -0.84435
C         51.31141        65.01025        -0.59797
C         52.63645        67.08618        -1.10696
C         51.33431        67.86800        -1.26416
C         52.62065        70.00589        -0.87299
C         51.32171        69.30059        -0.96646
C         52.59527        71.52604        -0.59053
C         51.30641        72.15767        -0.30392
C         52.49388        74.19454         0.34558
C         51.25698        73.50629         0.10975
C         53.87696        46.31921        -0.27455
C         55.10040        48.44860        -0.63741
C         53.91405        47.69625        -0.57572
C         55.10984        49.87492        -0.76001
C         53.88314        50.56520        -0.84602
C         55.10975        52.75227        -1.12608
C         53.87328        52.02352        -0.66020
C         55.05195        54.23046        -0.83075
C         53.85022        54.93029        -0.81441
C         55.01196        57.08425        -0.52016
C         53.84092        56.38013        -0.66647
C         55.02466        58.48244        -0.03588
C         53.75361        59.19143         0.24820
C         54.94853        61.30390        -0.39822
C         53.78480        60.71326         0.40266
C         54.73976        62.56088        -0.96260
C         53.71903        63.47090        -0.60509
C         55.11734        65.66245        -1.17766
C         53.79907        64.87329        -0.85117
C         55.06473        67.01694        -0.39912
C         53.79087        67.80622        -0.49471
C         54.99702        69.93990        -0.07840
C         53.83593        69.27650        -0.47648
C         54.94879        71.37018         0.17240
C         53.79895        72.12686        -0.00366
C         54.94487        74.21538         0.68381
C         53.73058        73.53201         0.36588
C         56.32245        50.63956        -0.58298
C         57.54124        52.78191        -0.41986
C         56.36780        52.03754        -0.66401
C         57.58361        54.20249        -0.47898
C         56.34389        54.92943        -0.85666
C         57.52585        57.12255        -0.19424
C         56.32123        56.44086        -0.68593
C         57.49591        58.53057        -0.04863
C         56.27635        59.25447        -0.17115
C         57.52598        61.34740        -0.46186
C         56.24824        60.64639        -0.39468
C         57.64307        62.74509        -0.72347
C         56.61811        63.58130        -1.22825
C         57.54179        65.61459        -0.31053
C         56.45705        64.94890        -0.86078
C         57.46677        67.00135         0.20145
C         56.27686        67.79715        -0.11503
C         57.48277        69.87110         0.37682
C         56.24417        69.17710         0.11566
C         57.43384        71.30021         0.73849
C         56.12949        72.05222         0.73363
C         57.38680        74.18089         1.10041
C         56.16199        73.53575         0.79192
C         58.73380        54.93775        -0.19516
C         59.90584        57.05692         0.33099
C         58.75367        56.37788        -0.04913
C         59.85948        58.49853         0.76432
C         58.70427        59.26190         0.16771
C         60.00093        61.34851         0.12512
C         58.72805        60.64130        -0.04755
C         60.09505        62.70043        -0.06580
C         58.92233        63.44120        -0.54259
C         60.00697        65.58909         0.39789
C         58.86089        64.96525        -0.34323
C         60.04953        67.06255         0.47416
C         58.75535        67.75292         0.51546
C         59.97694        69.90006         0.56320
C         58.72810        69.21796         0.44027
C         59.98943        71.37078         0.53323
C         58.66810        72.11400         0.60254
C         59.85540        74.13728         1.37870
C         58.63397        73.51815         1.07064
C         61.16262        59.23740         0.68664
C         62.42847        61.33226         0.76489
C         61.21081        60.59965         0.50621
C         62.56519        62.70267         0.56037
C         61.41643        63.44596        -0.13319
C         62.52088        65.60605         0.73841
C         61.28591        64.83635         0.52646
C         62.49565        67.02078         0.74947
C         61.23344        67.75236         0.61042
C         62.43132        69.94730         0.80063
C         61.21197        69.21212         0.67672
C         62.40551        71.35208         1.01602
C         61.19774        72.07454         0.96980
C         62.26535        74.09915         1.87134
C         61.10504        73.45562         1.36104
C         63.72212        63.44025         0.87034
C         64.91603        65.60360         1.17101
C         63.73883        64.87688         0.90838
C         64.91371        67.02146         1.19836
C         63.69697        67.73173         0.93833
C         65.02515        69.93262         1.09042
C         63.71794        69.20247         0.78758
C         64.97532        71.42360         1.31911
C         63.64920        72.12624         1.26614
C         64.61891        74.04335         2.55280
C         63.51214        73.45929         1.91524
C         66.07801        67.72974         1.60174
C         67.13949        69.75668         2.43182
C         66.12299        69.14043         1.71134
C         67.24519        71.20980         2.60506
C         66.10779        72.08522         2.05685
C         66.84708        73.89527         3.57443
C         65.86216        73.38022         2.72477
C         68.05100        71.77216         3.69004
C         67.91527        73.08950         4.05031
O         45.95893        56.44968        -2.71462
O         59.21984        64.38978        -1.62305
O         52.79116        70.99580        -1.94237
O         53.28232        52.44160         0.60213
O         29.57983        60.90883         2.36026
O         67.36047        71.97970         1.34272
O         57.90196        67.19536         1.59113
O         44.42110        36.97421         2.29352
O         36.91792        55.72190         2.20206
O         43.14646        62.91446        -3.28261
O         47.70175        45.29685         2.00578
O         40.92709        71.75986        -2.92400
O         50.53384        65.60675         0.48260
O         33.32371        63.30834        -0.57722
O         59.33296        71.93866        -0.67686
O         32.26046        70.55403        -1.34523
O         47.69576        63.53084         0.42487
O         43.13713        47.72068        -1.67286
O         38.86668        52.55365         2.07212
O         55.16471        65.93938        -2.52571
O         52.58261        48.97707        -2.18934
O         54.15721        67.10756         0.74927
O         50.77498        62.88461        -1.75053
O         64.68244        69.58281        -0.26937
O         50.05438        53.48282        -2.31636
O         56.51599        55.81707        -2.01437
O         52.53640        58.23983        -1.65998
O         42.02664        66.84020        -2.72553
O         34.47690        60.11609         2.38609
O         36.95080        68.70116         0.65712
O         47.80946        40.69363         2.75251
O         40.31100        54.27296        -1.83217
O         28.84868        72.01749         2.52344
O         54.41636        58.52820         1.36363
O         44.54077        65.53049        -3.23945
O         64.58157        72.15798         0.12328
O         26.85399        68.34667         2.58391
O         39.98003        61.79672        -2.88844
O         48.24368        54.46758         0.61562
O         56.68225        71.48492         1.98289
O         46.23650        61.15156         0.33650
O         61.74659        63.57944        -1.46600
O         60.34304        64.87166         1.65087
O         38.13326        49.14108         2.49505
O         46.53985        38.23689         2.63703
O         52.22199        67.51126        -2.42153
O         46.51661        58.62861         0.39580
O         49.99751        41.88251         2.34371
O         33.93108        65.30906         2.35450
O         49.39767        71.42237         1.00388
O         49.15867        61.06395         1.14824
O         43.44498        41.51735        -0.68333
O         46.99143        67.66498        -2.83582
O         37.71346        60.69331        -2.06941
O         39.55689        43.69325         2.01962
O         31.38276        67.74071         2.51615
O         42.97791        69.52769         0.32612
O         26.25327        71.76766        -0.24840
O         34.44113        69.29098        -1.82708
O         55.61784        62.98191        -1.97793
O         35.26456        54.30127        -0.72688
H         34.44949        53.81489        -0.97838
O         54.01223        61.02164         1.80420
H         54.30845        60.17773         2.22890
O         43.76616        51.78034        -2.74645
H         43.77534        52.69197        -3.10949
O         38.04767        63.47251        -2.87876
H         38.17687        62.57353        -3.26902
O         59.55766        58.43981         2.22568
H         59.45979        59.36527         2.53781
O         34.40928        56.50002         3.05761
H         34.55375        57.44187         3.29284
O         24.25332        72.20798         2.81908
H         23.41491        72.64347         3.08057
O         30.48818        65.25423         3.34842
H         31.17001        65.83135         3.75658
O         43.54094        58.94807        -3.27424
H         44.26412        59.43885        -3.73058
O         46.95132        63.20496        -3.11954
H         46.39042        63.68871        -3.76514
O         52.49921        63.29049         1.47636
H         53.09886        62.67687         1.96495
O         36.30779        66.04459         1.81989
H         35.62408        66.14230         2.52484
O         45.44581        60.98650        -3.29211
H         44.88954        61.58427        -3.84367
O         43.06571        58.28656         0.31315
H         43.31600        59.17580         0.64102
O         37.15184        67.00923        -2.56185
H         37.67883        66.34421        -3.05623
O         42.43275        66.61880         0.63645
H         42.52243        67.45926         1.13858
O         55.07667        52.64759        -2.58240
H         55.80715        53.19333        -2.94451
O         28.10885        67.33115        -0.67450
H         28.89259        66.87524        -1.04574
O         42.11011        56.94441        -2.94737
H         41.83175        56.03818        -3.19690
O         51.09096        58.99460         1.63708
H         50.33642        59.54821         1.95018
H         23.14847        75.39452         0.49328
H         25.58976        75.44990         0.82612
H         28.06382        75.48434         0.85492
H         30.49778        75.45118         0.30005
H         32.92138        75.38624        -0.20140
H         35.36767        75.33726        -0.65643
H         37.78317        75.30155        -1.11174
H         40.18913        75.30128        -1.18080
H         42.64935        75.30903        -0.85749
H         45.06863        75.28959        -0.49182
H         47.50756        75.30847        -0.14837
H         49.99818        75.27579         0.32213
H         52.46032        75.26489         0.59710
H         54.91485        75.30342         0.84447
H         57.37155        75.25978         1.31749
H         59.84714        75.18704         1.70825
H         62.16967        75.11315         2.28761
H         64.49379        75.03563         3.01279
H         66.70591        74.89639         4.00641
H         22.25058        69.49955         0.55803
H         20.99440        71.65335         0.35512
H         21.03751        74.12369         0.28157
H         24.68891        65.20873         0.37510
H         23.42609        67.38729         0.63850
H         27.12317        61.03564         0.05177
H         25.89412        63.05893         0.46181
H         29.56250        56.56578         1.00420
H         28.46532        58.55939         0.24054
H         32.00918        52.27462         1.30264
H         30.77526        54.42967         1.36235
H         34.45278        47.97218         1.22920
H         33.26342        50.09304         1.37836
H         36.69125        43.77676         0.28600
H         35.63162        45.80725         0.85819
H         39.37258        39.29807         0.47653
H         38.15474        41.30162         0.11508
H         41.91000        35.11947        -0.10307
H         40.59677        37.19231         0.25389
H         45.39500        32.03445        -1.15715
H         43.20111        33.12468        -0.71710
H         47.52434        33.24025        -0.69642
H         48.71070        35.27744        -0.02032
H         49.90297        37.33737         0.42201
H         51.06082        39.36926         0.38865
H         52.34429        41.56888         0.06524
H         53.58497        43.67237         0.02579
H         54.82213        45.76715        -0.16185
H         56.05703        47.93594        -0.45598
H         57.24545        50.09246        -0.33658
H         58.46060        52.24296        -0.14251
H         59.66193        54.39321         0.03618
H         60.84189        56.49885         0.48389
H         62.07878        58.69250         0.96249
H         63.22330        60.79982         1.31462
H         64.67546        62.90867         1.02104
H         65.85621        65.06741         1.36546
H         66.95100        67.15138         1.93879
H         67.88030        69.12383         2.94419
H         68.76962        71.12073         4.20768
H         68.58004        73.50931         4.81860
