         204
 CSIRO Nanostructure Databank - Neutral Graphene Oxide Data Set
C        -11.11197         0.65786        -0.05716
C         -9.94717         1.44516        -0.59984
C         -8.64768         0.67582        -0.55219
C         -7.40350         1.39123        -0.66222
C         -6.18929         0.68536        -0.87617
C         -4.98573         1.48534        -1.33094
C         -3.66906         0.71304        -1.23074
C         -2.42212         1.45155        -0.92272
C         -1.21233         0.71447        -0.67467
C          0.03535         1.43804        -0.58865
C          1.24929         0.72506        -0.42091
C          2.54089         1.42778        -0.72783
C          3.76299         0.73210        -0.20168
C          4.95238         1.43335        -0.05981
C          6.19348         0.74357         0.03741
C          7.42333         1.46229        -0.05773
C          8.64184         0.73149        -0.18409
C          9.89437         1.46062        -0.26157
C         11.12493         0.67499        -0.21660
C         -9.81870         2.82044        -0.02924
C         -8.60023         3.48888        -0.04590
C         -7.38023         2.80997        -0.43329
C         -6.14342         3.53266        -0.42308
C         -4.92378         2.86912        -0.73717
C         -3.69929         3.55574        -0.70865
C         -2.45345         2.84335        -0.88640
C         -1.18044         3.61191        -1.10311
C          0.06290         2.85979        -0.71380
C          1.27023         3.59126        -0.56829
C          2.51406         2.90461        -0.43300
C          3.68972         3.61262        -0.23080
C          4.93525         2.90590         0.22165
C          6.21476         3.61598        -0.11599
C          7.42696         2.89364        -0.14505
C          8.67364         3.60496        -0.25535
C          9.89579         2.84195        -0.28016
C         -8.53271         4.86279         0.34625
C         -7.33352         5.57594         0.31839
C         -6.11295         4.91884        -0.07251
C         -4.88830         5.64875        -0.10093
C         -3.68209         4.96047        -0.40644
C         -2.44624         5.68299        -0.38962
C         -1.20800         5.02714        -0.59225
C          0.01269         5.72413        -0.45108
C          1.26348         5.02229        -0.46936
C          2.47173         5.75038        -0.33241
C          3.70436         5.03715        -0.23211
C          4.94945         5.73486        -0.14648
C          6.19934         5.02152        -0.16626
C          7.44335         5.74212        -0.20758
C          8.65937         5.00697        -0.26919
C         -7.28022         6.94682         0.71278
C         -6.08970         7.66056         0.70153
C         -4.86089         7.04960         0.25289
C         -3.66067         7.80359         0.19440
C         -2.46582         7.10419        -0.21343
C         -1.24431         7.77020        -0.44358
C          0.01433         7.15056        -0.32445
C          1.22868         7.90064        -0.10461
C          2.46307         7.18285        -0.16461
C          3.70709         7.85756         0.00459
C          4.94857         7.14840        -0.06715
C          6.19608         7.85634        -0.01032
C          7.40898         7.15686        -0.12424
C         -6.05005         9.01529         1.18665
C         -4.87266         9.69185         1.26202
C         -3.62679         9.15149         0.76438
C         -2.48769         9.92675         1.03890
C         -1.20600         9.71387         0.44665
C          0.07742         9.95106         0.90153
C          1.24598         9.26753         0.37315
C          2.49450         9.90526         0.53740
C          3.71404         9.25845         0.27910
C          4.97593         9.94610         0.35243
C          6.16011         9.28257         0.17985
C        -11.09258        -0.69039        -0.01186
C         -9.89166        -1.45168        -0.32728
C         -8.68276        -0.71262        -0.60463
C         -7.45045        -1.45069        -0.91828
C         -6.16366        -0.73187        -0.91352
C         -4.96707        -1.48512        -0.92681
C         -3.66985        -0.78101        -1.07630
C         -2.41557        -1.46410        -0.68867
C         -1.23503        -0.69623        -0.42374
C         -0.01313        -1.30884         0.07787
C          1.24724        -0.65451        -0.11451
C          2.48151        -1.36428         0.11151
C          3.73448        -0.67094         0.02262
C          4.95444        -1.34424         0.28011
C          6.19190        -0.67309         0.16208
C          7.43665        -1.40107         0.05898
C          8.63023        -0.67547        -0.22130
C          9.85323        -1.40400        -0.71825
C         11.11898        -0.67067        -0.33797
C         -9.88550        -2.83602        -0.19663
C         -8.69793        -3.62253        -0.29147
C         -7.44950        -2.97172        -0.74154
C         -6.16566        -3.62797        -0.47861
C         -4.96004        -2.89052        -0.65297
C         -3.69900        -3.57176        -0.54362
C         -2.47432        -2.89210        -0.67276
C         -1.24748        -3.71120        -0.95966
C          0.03911        -2.58582         0.70330
C          1.20737        -3.38111         0.62763
C          2.45744        -2.75699         0.41108
C          3.68013        -3.50967         0.59649
C          4.93042        -2.75209         0.66442
C          6.27258        -3.53400         0.59075
C          7.45742        -2.80926         0.13184
C          8.66174        -3.55919        -0.15283
C          9.83957        -2.88033        -0.44173
C         -8.66383        -4.97458         0.01741
C         -7.43719        -5.70959         0.03144
C         -6.18187        -5.01478        -0.12247
C         -4.97412        -5.72740         0.05608
C         -3.69453        -4.94148         0.09725
C         -2.48465        -5.80553        -0.16297
C         -1.16488        -5.10528        -0.35094
C          0.00851        -5.64481         0.36771
C          1.13569        -4.84735         0.84019
C          2.46695        -5.64946         0.99553
C          3.71676        -4.89722         0.77230
C          4.94650        -5.64037         0.58685
C          6.17630        -4.98034         0.40685
C          7.38328        -5.69108         0.07397
C          8.58942        -4.99481        -0.11897
C         -7.42158        -7.10063         0.24401
C         -6.21612        -7.81623         0.35588
C         -4.96408        -7.11595         0.33911
C         -3.73585        -7.83660         0.61040
C         -2.51184        -7.09157         0.56585
C         -1.29622        -7.58647         1.00649
C         -0.01275        -6.99990         0.76396
C          1.19776        -7.79000         0.87428
C          2.43080        -7.10329         0.78582
C          3.66446        -7.77979         0.54042
C          4.89207        -7.07522         0.45365
C          6.10751        -7.79348         0.17061
C          7.31156        -7.11399        -0.01108
C         -6.19981        -9.24452         0.48305
C         -5.01841        -9.93225         0.55992
C         -3.74277        -9.27200         0.65629
C         -2.56914       -10.09270         0.56429
C         -1.29422        -9.67093         0.96948
C          0.00730       -10.05427         0.56240
C          1.16852        -9.24145         0.68937
C          2.41670        -9.88504         0.43649
C          3.63191        -9.20781         0.37500
C          4.87002        -9.90597         0.13469
C          6.04953        -9.23040         0.03865
O          2.68242         1.33943        -2.20047
H          1.81877         1.59123        -2.59315
O         -5.23545         1.71566        -2.75329
H         -4.82969         0.95174        -3.22963
O         -7.57580        -2.35661        -2.06932
O          9.79059        -1.29865        -2.20191
H          9.75151        -0.34163        -2.41708
O        -10.23638         1.62745        -2.04289
H        -10.16908         0.74365        -2.46435
O         -3.50416        -0.13712        -2.42457
O          4.86056         2.97550         1.70293
H          5.67481         2.55533         2.05441
O         -1.30899        -8.63359         1.93324
O         -0.44065        -3.36839        -1.80833
O         -3.50171        -4.61754         1.53888
H         -4.32462        -4.18682         1.85555
O         -1.08975         3.74235        -2.58616
H         -0.35141         4.36087        -2.77477
O         -1.03139        -3.03209         1.42118
H         -0.80244        -3.85647         1.89935
O         -1.28324         9.10851        -0.82847
O         -1.79636        -5.93152        -1.43007
O          5.72378        -3.04535         1.85743
O          1.65962        -5.24224         2.14893
H         12.06286        -1.23514        -0.29590
H         12.07026         1.21285        -0.04461
H         10.85340         3.38408        -0.31164
H          9.61256         5.55598        -0.30772
H          8.35630         7.71704        -0.11093
H          7.11254         9.83135         0.22328
H          4.97228        11.03037         0.53820
H          2.51052        10.95431         0.86940
H          0.23488        10.62216         1.75971
H         -2.60233        10.75456         1.75704
H         -4.85459        10.70850         1.68229
H         -6.98397         9.47714         1.53839
H         -8.20406         7.43864         1.05263
H         -9.45869         5.37128         0.65357
H        -10.72945         3.35671         0.27740
H        -12.03155         1.20747         0.19479
H        -11.98240        -1.25043         0.31461
H        -10.82118        -3.34438         0.08293
H         -9.59655        -5.49739         0.27814
H         -8.37646        -7.64268         0.31616
H         -7.15633        -9.78700         0.46963
H         -5.03298       -11.03167         0.59490
H         -2.68201       -11.07902         0.08776
H          0.13654       -11.03609         0.08046
H          2.41443       -10.97531         0.28357
H          4.84300       -10.99970         0.02184
H          6.98598        -9.77305        -0.15743
H          8.22412        -7.68242        -0.24496
H          9.50602        -5.56894        -0.32081
H         10.75424        -3.45192        -0.66166
