         204
 CSIRO Nanostructure Databank - Neutral Graphene Oxide Data Set
C        -11.02807         0.59531         0.83490
C         -9.71445         1.33518         0.91256
C         -8.69153         0.68172         0.00971
C         -7.43100         1.44738        -0.30454
C         -6.18703         0.69009        -0.50740
C         -4.95328         1.41263        -0.53489
C         -3.73373         0.70088        -0.74169
C         -2.50816         1.42503        -0.86709
C         -1.25271         0.70149        -0.97043
C         -0.01852         1.37943        -1.04777
C          1.22151         0.68264        -0.85477
C          2.46577         1.38321        -0.79780
C          3.65228         0.71820        -0.39754
C          4.87201         1.46212        -0.19624
C          6.05858         0.83635         0.39092
C          7.35557         1.50508         0.29252
C          8.53875         0.79515         0.56226
C          9.78800         1.50424         0.59729
C         10.98981         0.76696         0.78134
C         -9.76269         2.82283         0.71992
C         -8.58750         3.53692         0.47007
C         -7.36459         2.85931         0.09944
C         -6.15160         3.54218        -0.00858
C         -4.93548         2.83081        -0.33941
C         -3.71509         3.54647        -0.44693
C         -2.52825         2.83399        -0.77269
C         -1.31426         3.60397        -1.06524
C          0.00301         2.83768        -1.24851
C          1.25007         3.58066        -1.04622
C          2.53008         2.81372        -1.27187
C          3.76238         3.55157        -0.83957
C          4.95275         2.84568        -0.51021
C          6.19206         3.55724        -0.37636
C          7.37853         2.89908        -0.01640
C          8.62625         3.61942         0.12087
C          9.79018         2.91531         0.43680
C         -8.53617         4.95653         0.62209
C         -7.33159         5.65756         0.50948
C         -6.10884         4.95994         0.20322
C         -4.88973         5.66702         0.08242
C         -3.67619         4.98237        -0.25158
C         -2.45719         5.70946        -0.34394
C         -1.24659         5.02008        -0.67614
C         -0.01727         5.68788        -0.68313
C          1.23418         4.96184        -0.88420
C          2.49490         5.66687        -0.76102
C          3.73950         4.97114        -0.76474
C          4.94584         5.71298        -0.63127
C          6.25509         4.99273        -0.82995
C          7.44917         5.74326        -0.28277
C          8.60073         5.05687         0.03516
C         -7.28411         7.07050         0.72004
C         -6.08820         7.76915         0.64903
C         -4.86171         7.08024         0.32129
C         -3.64597         7.78937         0.25964
C         -2.41723         7.13133        -0.08956
C         -1.19809         7.86096        -0.17773
C         -0.00050         7.12341        -0.51705
C          1.23949         7.74232        -0.71593
C          2.49223         7.07117        -0.57772
C          3.68080         7.78552        -0.25948
C          4.91557         7.09964        -0.38972
C          6.17078         7.84642        -0.28113
C          7.37686         7.17871        -0.23757
C         -6.04597         9.18823         0.90977
C         -4.86742         9.86718         0.88741
C         -3.62967         9.19319         0.57811
C         -2.42047         9.86252         0.63274
C         -1.17161         9.25256         0.28690
C         -0.03979        10.03127         0.60138
C          1.29478         9.72811         0.17526
C          2.48176         9.86767         0.83379
C          3.75057         9.09243         0.53978
C          4.91514         9.92355         0.03267
C          6.07860         9.30184        -0.26225
C        -11.04679        -0.73843         0.61916
C         -9.84577        -1.50812         0.30312
C         -8.63000        -0.78566        -0.00021
C         -7.47507        -1.42462        -0.42843
C         -6.22624        -0.71261        -0.62172
C         -4.98435        -1.44117        -0.75956
C         -3.74965        -0.73007        -0.80881
C         -2.50736        -1.44540        -0.85578
C         -1.27006        -0.72852        -0.88517
C         -0.03386        -1.44496        -0.83447
C          1.19737        -0.73016        -0.72039
C          2.43217        -1.44784        -0.48314
C          3.62232        -0.69518        -0.18453
C          4.77863        -1.41311         0.33470
C          6.06092        -0.69468         0.61009
C          7.34283        -1.36837         0.47347
C          8.53310        -0.65076         0.60190
C          9.79169        -1.36667         0.67465
C         10.98902        -0.61770         0.82241
C         -9.86807        -2.89026         0.24253
C         -8.70858        -3.63629        -0.14774
C         -7.53476        -2.88182        -0.64017
C         -6.22917        -3.63579        -0.84233
C         -4.96297        -2.86703        -0.78560
C         -3.74715        -3.56536        -0.79781
C         -2.50549        -2.86978        -0.81035
C         -1.24919        -3.58345        -0.76608
C         -0.04095        -2.86795        -0.81613
C          1.24992        -3.61465        -1.00260
C          2.45825        -2.83951        -0.57604
C          3.75740        -3.57197        -0.71501
C          4.87253        -2.92874         0.08251
C          6.16305        -3.56666         0.00915
C          7.42041        -2.75982        -0.10475
C          8.64557        -3.52257         0.35262
C          9.79744        -2.78434         0.66232
C         -8.66645        -5.01916        -0.09427
C         -7.44704        -5.75986        -0.27122
C         -6.22435        -5.07477        -0.52413
C         -5.00615        -5.77388        -0.51910
C         -3.76498        -5.04541        -0.84714
C         -2.45286        -5.78423        -0.61978
C         -1.21132        -4.99986        -0.51763
C         -0.00046        -5.64741        -0.21908
C          1.24081        -5.00499        -0.41708
C          2.45439        -5.69957        -0.20988
C          3.70941        -5.04364        -0.38083
C          4.91677        -5.71829        -0.23331
C          6.22217        -4.98620        -0.49465
C          7.43718        -5.68121         0.09269
C          8.60097        -4.92997         0.36930
C         -7.41317        -7.16179        -0.08453
C         -6.20292        -7.86960        -0.08649
C         -4.97467        -7.17060        -0.28465
C         -3.71779        -7.86370        -0.10163
C         -2.52272        -7.15752        -0.11221
C         -1.30926        -7.78706         0.42257
C         -0.00420        -7.01375         0.34947
C          1.24336        -7.78476         0.35555
C          2.45677        -7.10561         0.12217
C          3.69336        -7.80191         0.25034
C          4.92709        -7.10896         0.09175
C          6.16676        -7.78895         0.31416
C          7.38085        -7.05817         0.34427
C         -6.15985        -9.29558         0.15309
C         -4.97868        -9.96343         0.29437
C         -3.70991        -9.27908         0.23453
C         -2.51031        -9.95111         0.45361
C         -1.25909        -9.26035         0.51797
C         -0.03431        -9.88669         0.70690
C          1.21923        -9.18320         0.62845
C          2.45481        -9.86730         0.73505
C          3.68021        -9.19785         0.57605
C          4.94205        -9.86822         0.73101
C          6.12923        -9.18883         0.61850
O          4.15300         8.64778         1.88377
H          5.01974         8.19461         1.80285
O          4.14258        -3.45627        -2.13324
H          3.31842        -3.67609        -2.64156
O          6.41858        -4.97057        -1.95745
H          5.61006        -4.52380        -2.32816
O          4.44854        -2.39637         1.37709
O         -7.08579        -3.28834        -1.97985
O          7.59074        -2.55001        -1.56088
H          7.44672        -3.43743        -1.98455
O          2.63823         2.70128        -2.75503
H          2.63480         3.61329        -3.11734
O         -9.19885         1.11359         2.27926
H         -9.83725         1.51494         2.90577
O          1.41020        -3.81130        -2.48933
H          0.99026        -3.03964        -2.92853
O         -0.76642        -7.09848         1.61199
O          6.46333         4.94365        -2.29541
H          6.54053         5.87120        -2.60527
O          1.31821         9.07972        -1.08447
O         -3.04767        -5.63257        -1.97574
O          5.89648         0.21917         1.72752
O         -0.77322         3.31693        -2.40149
O         -8.50815         1.24702        -1.31443
H         11.94099        -1.15824         0.93078
H         11.94183         1.31359         0.85156
H         10.74189         3.46023         0.53206
H          9.50752         5.61473         0.31804
H          8.30804         7.74913        -0.09347
H          6.98061         9.88228        -0.51038
H          4.84847        11.02104         0.03852
H          2.47848        10.37454         1.81016
H         -0.19932        10.91223         1.24278
H         -2.40993        10.91783         0.94490
H         -4.83576        10.94444         1.10666
H         -6.98719         9.70559         1.14646
H         -8.21521         7.60492         0.96136
H         -9.45744         5.50134         0.87773
H        -10.67116         3.37016         1.01718
H        -11.96059         1.13582         1.06063
H        -12.00083        -1.28728         0.65387
H        -10.78871        -3.43713         0.49662
H         -9.56832        -5.57167         0.21031
H         -8.35463        -7.70143         0.09730
H         -7.11332        -9.83689         0.24290
H         -4.97777       -11.04460         0.49782
H         -2.52343       -11.03932         0.61819
H         -0.00631       -10.97813         0.84639
H          2.45438       -10.94494         0.95772
H          4.94263       -10.94225         0.96847
H          7.08110        -9.71858         0.77152
H          8.29548        -7.57514         0.67561
H          9.50456        -5.47560         0.68837
H         10.73555        -3.31526         0.88869
