         410
 CSIRO Nanostructure Databank - Neutral Graphene Oxide Data Set
C         27.94721        27.45448         0.76263
C         27.92892        28.82719         0.43078
C         26.67933        29.56850         0.42781
C         27.80804        31.62235        -0.35551
C         26.61188        30.87254         0.07829
C         27.85851        33.14921        -0.27923
C         26.67419        33.89110         0.19565
C         27.95324        35.97725         0.33089
C         26.73702        35.20568         0.49932
C         27.93542        37.37789         0.50920
C         26.84932        38.10142         1.08749
C         28.03308        40.25609         0.88440
C         26.88292        39.46798         1.23405
C         28.05054        41.68810         1.01005
C         26.92423        42.42809         1.47195
C         28.07551        44.53288         1.04221
C         26.94045        43.80336         1.50692
C         28.09780        45.96172         1.07221
C         30.36510        27.37000         0.43712
C         29.13143        26.73869         0.72989
C         30.36921        28.76886         0.15821
C         29.13624        29.46866         0.08977
C         30.41162        31.66201        -0.26414
C         29.11082        30.87585        -0.36440
C         30.35796        33.12073        -0.05057
C         29.17557        33.81991        -0.09332
C         30.40405        35.96387        -0.03945
C         29.17829        35.27553         0.05790
C         30.39009        37.41148        -0.25890
C         29.07911        38.16888         0.04708
C         30.39937        40.29277         0.16192
C         29.17217        39.59693         0.37214
C         30.41891        41.69783         0.25625
C         29.21831        42.40578         0.60020
C         30.33220        44.56209        -0.09042
C         29.20668        43.82376         0.58620
C         30.39876        46.02727         0.25047
C         29.24456        46.67028         0.72105
C         32.83363        24.51017         0.45989
C         31.64052        25.21264         0.53388
C         32.84390        27.31432         0.25069
C         31.60843        26.61951         0.41485
C         32.82649        28.74421         0.16144
C         31.62873        29.48478         0.07094
C         32.85368        31.66839         0.09159
C         31.64877        30.92249         0.05954
C         32.89126        33.07269         0.11034
C         31.61595        33.81243         0.44338
C         32.87757        35.94097         0.00082
C         31.66275        35.27618         0.07085
C         32.92268        37.40962        -0.38449
C         31.64085        38.17449        -0.15937
C         32.90283        40.28928         0.03866
C         31.63747        39.54898        -0.04355
C         32.89112        41.74131         0.06879
C         31.66080        42.44004         0.09585
C         32.86136        44.57950        -0.09193
C         31.65369        43.85070         0.02752
C         32.84567        46.01768        -0.19783
C         31.61579        46.73766        -0.05066
C         32.81021        48.81341        -0.50119
C         31.62949        48.14006        -0.19820
C         35.44477        23.00668         0.58244
C         35.31197        24.37099         0.05380
C         34.06459        25.17174         0.24965
C         35.33759        27.30887        -0.09045
C         34.06935        26.57459         0.15238
C         35.39226        28.74462         0.29492
C         34.09366        29.47812         0.31103
C         35.42761        31.64430        -0.05643
C         34.11678        30.92101        -0.04694
C         35.39382        33.11342         0.10786
C         34.13539        33.78943         0.08970
C         35.37708        35.91133         0.19557
C         34.13961        35.22431         0.10807
C         35.37369        37.38074         0.35250
C         34.09592        38.13508         0.22990
C         35.38554        40.31534         0.46648
C         34.09379        39.61287         0.13197
C         35.36660        41.77736         0.07203
C         34.12034        42.46477         0.01811
C         35.33811        44.60849        -0.27114
C         34.10699        43.88698        -0.11290
C         35.31791        46.01250        -0.45209
C         34.06436        46.72375        -0.41268
C         35.26214        48.91370        -0.97023
C         34.02897        48.13315        -0.58574
C         35.40755        50.18568        -0.14721
C         37.88008        22.98343         0.17129
C         36.63065        22.33981         0.51033
C         37.90088        24.38649         0.05767
C         36.63843        25.09584        -0.19811
C         37.90848        27.29956         0.14234
C         36.65556        26.59067        -0.22579
C         37.87295        28.72615         0.25029
C         36.67896        29.46589         0.13147
C         37.88599        31.61298         0.26316
C         36.68771        30.88867         0.16707
C         37.84287        33.06069         0.54236
C         36.59535        33.81434         0.29993
C         37.88149        35.96500         0.48726
C         36.61479        35.23485         0.33500
C         37.84024        37.43153         0.39484
C         36.65658        38.10396         0.26728
C         37.84913        40.32711        -0.08018
C         36.56085        39.55427        -0.17883
C         37.80816        41.71117        -0.12114
C         36.57480        42.46752        -0.09408
C         37.80196        44.63004        -0.41511
C         36.58864        43.90103        -0.26387
C         37.81464        46.02090        -0.64304
C         36.55345        46.73651        -0.65695
C         37.79342        48.84008        -1.08149
C         36.54069        48.11041        -0.87664
C         37.79912        50.34610        -0.72144
C         36.57155        50.85113        -0.07176
C         40.32858        20.13891        -0.14962
C         39.14888        20.82464         0.05008
C         40.33418        22.96132        -0.12213
C         39.11763        22.24683         0.06545
C         40.35480        24.39425        -0.05445
C         39.12210        25.12532         0.09286
C         40.39802        27.24866         0.39688
C         39.10295        26.55160         0.23515
C         40.43185        28.74802         0.45212
C         39.10830        29.49166         0.49473
C         40.37239        31.63606         0.26249
C         39.13576        30.94699         0.30836
C         40.40764        33.07583         0.33818
C         39.15135        33.80799         0.67695
C         40.39617        35.99624         0.73889
C         39.09324        35.29003         0.59735
C         40.40168        37.50203         0.63315
C         39.07546        38.27380         0.68856
C         40.29434        40.23465        -0.32196
C         39.09201        39.60902        -0.02133
C         40.25458        41.67514        -0.67575
C         39.08676        42.44135        -0.14850
C         40.34043        44.61873        -0.71531
C         39.09610        43.92870        -0.30152
C         40.32204        46.03114        -0.83214
C         39.06390        46.73066        -0.82121
C         40.29599        48.86712        -1.09081
C         39.07857        48.13037        -1.01143
C         40.26402        50.29725        -0.94804
C         39.10913        50.99361        -0.53772
C         40.38114        53.06091        -0.19249
C         39.19235        52.35803        -0.14183
C         42.77688        20.13456        -0.54992
C         41.55329        20.83235        -0.34458
C         42.79417        22.95959        -0.51408
C         41.56036        22.25709        -0.33032
C         42.80150        24.39193        -0.49105
C         41.58098        25.06761        -0.23774
C         42.75882        27.26675        -0.61245
C         41.64707        26.50965         0.03844
C         42.69735        28.76622        -0.65547
C         41.59378        29.50410        -0.00637
C         42.82792        31.62809        -0.27320
C         41.59500        30.90074         0.00859
C         42.82689        33.05713        -0.15914
C         41.59936        33.75999         0.14457
C         42.76302        35.97293        -0.20098
C         41.71919        35.20265         0.59480
C         42.82379        37.44912        -0.08556
C         41.61343        38.19139         0.10838
C         42.76630        40.18858        -0.79760
C         41.53842        39.52321        -0.31318
C         42.78918        41.68646        -1.07770
C         41.49819        42.43813        -1.00925
C         42.78875        44.58966        -0.89716
C         41.54250        43.90861        -0.83626
C         42.79471        46.01506        -0.92362
C         41.55600        46.73426        -0.97467
C         42.80808        48.84176        -1.10559
C         41.55793        48.16181        -1.09394
C         42.85032        50.29609        -1.29254
C         41.48697        51.07351        -1.16060
C         42.79524        53.12805        -0.73627
C         41.56109        52.45904        -0.70039
C         43.96323        20.81519        -0.70056
C         45.25390        22.96593        -0.75081
C         44.01140        22.24077        -0.67148
C         45.25779        24.39592        -0.75027
C         44.03131        25.11833        -0.65006
C         45.24238        27.25834        -0.93631
C         44.05176        26.55176        -0.75132
C         45.22466        28.72951        -1.19006
C         43.95622        29.51504        -0.97161
C         45.27534        31.63735        -0.67538
C         44.01716        30.95420        -0.61739
C         45.27496        33.06649        -0.51892
C         44.04761        33.75109        -0.34465
C         45.30210        35.95270        -0.53643
C         44.02466        35.21811        -0.52507
C         45.27996        37.36600        -0.43757
C         44.03666        38.10436        -0.33433
C         45.22316        40.27060        -0.53616
C         44.04911        39.53684        -0.49653
C         45.24582        41.71244        -0.69176
C         44.03963        42.43360        -0.85870
C         45.26875        44.57241        -0.78355
C         44.03363        43.85725        -0.85530
C         45.27298        46.00361        -0.78950
C         44.04128        46.71908        -0.88207
C         45.27892        48.87064        -0.83224
C         44.03501        48.14921        -0.93083
C         45.29064        50.29864        -0.82208
C         44.07071        51.04170        -0.99436
C         44.00365        52.44139        -0.89300
C         47.69219        22.98060        -0.76174
C         46.50238        22.28995        -0.79295
C         47.72596        24.40325        -0.73566
C         46.49591        25.11490        -0.79223
C         47.72371        27.25144        -0.76639
C         46.50086        26.55248        -0.85446
C         47.69697        28.73207        -0.64934
C         46.54951        29.48132        -1.28667
C         47.73556        31.65718        -0.87070
C         46.50808        30.94672        -0.87169
C         47.71405        33.08511        -0.78324
C         46.51338        33.79168        -0.62863
C         47.76098        35.97337        -0.57851
C         46.52539        35.24811        -0.57898
C         47.73526        37.39909        -0.44999
C         46.50066        38.07520        -0.37083
C         47.75822        40.28077        -0.28416
C         46.46513        39.53896        -0.22046
C         47.73583        41.69278        -0.73171
C         46.47479        42.44036        -0.68296
C         47.76288        44.57050        -0.61958
C         46.50559        43.85031        -0.73025
C         47.74737        46.00698        -0.57706
C         46.51662        46.71412        -0.69317
C         47.73578        48.86075        -0.55637
C         46.50851        48.15125        -0.69423
C         47.71021        50.27837        -0.54576
C         46.52860        50.97341        -0.66663
C         50.21408        24.44974        -0.51830
C         48.96830        25.12114        -0.63276
C         50.20806        27.24865        -0.55090
C         48.96142        26.54934        -0.62800
C         50.22319        28.70370        -0.79306
C         48.97977        29.49420        -0.59943
C         50.24349        31.61339        -0.89230
C         49.01453        30.95431        -0.88169
C         50.26909        33.08055        -1.11172
C         48.96837        33.83495        -0.99719
C         50.24615        35.95623        -0.63388
C         49.01308        35.28371        -0.69788
C         50.23196        37.42873        -0.66458
C         48.97292        38.14446        -0.48083
C         50.23094        40.26429        -0.18209
C         49.01588        39.53187        -0.44388
C         50.20679        41.69123        -0.07712
C         49.05773        42.43739        -0.59652
C         50.22026        44.56821        -0.18912
C         48.98822        43.89202        -0.45724
C         50.22628        46.01693        -0.24468
C         48.98749        46.71709        -0.42161
C         50.20217        48.83179        -0.22869
C         48.97955        48.14285        -0.40741
C         51.39942        25.14173        -0.40293
C         52.69222        27.29453        -0.27561
C         51.43135        26.56383        -0.43162
C         52.72716        28.70038        -0.36009
C         51.52848        29.45064        -0.75985
C         52.70145        31.58741        -0.41567
C         51.50162        30.92668        -0.65270
C         52.80427        33.05813        -0.57848
C         51.55545        33.83647        -0.90415
C         52.70557        35.92947        -0.18046
C         51.50973        35.27753        -0.56419
C         52.76608        37.40083        -0.07443
C         51.53574        38.20691        -0.33204
C         52.31272        40.19682         1.18930
C         51.40774        39.57024         0.15114
C         52.44395        41.71542         0.97987
C         51.35430        42.40235         0.36980
C         52.66770        44.51126         0.31127
C         51.37116        43.83273         0.16830
C         52.71638        46.03399         0.13461
C         51.42971        46.74020        -0.06644
C         51.39095        48.14906        -0.05300
C         55.06834        27.29854         0.29703
C         53.90065        26.61180         0.04883
C         55.09718        28.71873         0.27181
C         53.90655        29.43034        -0.05205
C         55.08398        31.56602         0.28955
C         53.90544        30.86624        -0.06931
C         55.07001        33.01852         0.42937
C         53.93970        33.76901         0.04128
C         54.97017        35.83228         0.87936
C         53.88793        35.18445         0.18623
C         54.85968        37.17529         1.36627
C         53.85974        38.07855         0.77537
C         54.37075        39.68783         2.51955
C         53.59204        39.38709         1.41961
C         54.36787        42.03761         2.59469
C         53.49616        42.50719         1.57332
C         54.74879        44.64171         1.67689
C         53.67839        43.86895         1.17085
C         54.83681        46.06266         1.39358
C         53.85692        46.73843         0.75367
C         56.28155        29.44818         0.55800
C         56.26598        30.82547         0.57412
C         56.18433        33.71238         0.97025
C         56.12192        35.06611         1.20707
C         55.64362        37.62545         2.44930
C         55.42049        38.86742         3.01474
C         55.43553        42.79446         3.08601
C         55.65868        44.07709         2.59538
O         29.49738        37.85539        -1.32818
O         50.92168        29.01913        -2.04031
O         42.24761        27.95481        -1.80779
O         34.54026        37.72553         1.57347
O         53.12786        45.13069        -0.94146
O         42.77922        40.72341        -2.17132
O         41.32398        26.75864         1.44804
O         44.39935        29.17178        -2.32826
O         40.55596        42.02351        -2.06679
O         39.31695        43.27557         1.03147
O         54.10742        40.84025         3.28042
O         51.07098        38.01503        -1.70361
O         29.88999        31.16263        -1.55617
O         34.76933        29.10202         1.57912
O         43.02178        35.56686        -1.57714
O         34.78760        31.19669        -1.32415
O         52.53297        33.51745        -1.95240
O         49.56924        33.51574        -2.31633
O         37.66762        49.88965        -2.11079
O         35.96503        27.12951        -1.40391
O         35.87651        24.50948        -1.29316
O         48.55479        41.93531        -1.90080
O         27.61907        32.44662        -1.54469
O         39.85081        29.16126         1.72755
O         40.54621        36.83550         1.94804
O         38.44695        33.31998         1.87038
O         42.11835        50.79962        -2.44313
O         47.11566        40.05593         1.01747
O         53.91900        38.04438        -0.69779
O         48.21577        29.20512         0.63570
O         35.53085        40.28653         1.90809
H         35.30566        39.36914         2.20223
O         51.55544        40.06217         2.45203
H         52.11502        40.46602         3.15596
O         38.88670        38.68916         2.07467
H         39.23343        37.96099         2.64175
O         35.06073        49.31360        -2.35764
H         35.91819        49.70297        -2.66248
O         42.30652        35.06936         1.92178
H         41.89436        35.75652         2.49766
O         30.00256        44.52567        -1.54142
H         29.13346        44.96807        -1.64980
O         36.22797        39.48209        -1.59790
H         36.99744        39.11919        -2.08464
O         31.51216        33.77104         1.91892
H         32.28887        34.25023         2.27992
O         46.91124        29.48880        -2.69664
H         46.08081        29.65291        -3.20164
O         33.18360        37.44575        -1.82351
H         32.36923        37.15490        -2.28670
H         27.00520        26.95080         1.02183
H         25.76421        29.02839         0.71174
H         25.63729        31.37886         0.04717
H         25.70801        33.37007         0.23571
H         25.81848        35.72393         0.80607
H         25.95389        37.56134         1.42412
H         26.00490        39.96602         1.66635
H         26.02180        41.89907         1.80638
H         26.06464        44.35783         1.87351
H         27.21623        46.50002         1.44755
H         29.10492        25.66652         0.96489
H         29.24991        47.75993         0.86892
H         32.80924        23.41391         0.52471
H         30.70831        24.64582         0.65723
H         32.77852        49.89645        -0.68320
H         30.69343        48.71077        -0.13072
H         34.56802        22.50606         1.01748
H         34.52047        50.58924         0.36379
H         36.66100        21.29312         0.84495
H         36.64152        51.76506         0.53659
H         40.33020        19.03944        -0.16622
H         38.21750        20.25712         0.18004
H         40.41234        54.11183         0.12849
H         38.28286        52.87370         0.19495
H         42.76571        19.03529        -0.57464
H         42.82222        54.20318        -0.50696
H         44.88612        20.23822        -0.84510
H         44.92938        53.02409        -0.79486
H         48.62887        22.40860        -0.76172
H         46.53396        21.19297        -0.81614
H         48.64047        50.85062        -0.44282
H         46.56037        52.07018        -0.65997
H         50.24951        23.35268        -0.51736
H         50.23057        49.92828        -0.22777
H         52.33218        24.56930        -0.32049
H         52.31672        48.72588         0.06962
H         55.99016        26.75005         0.53807
H         53.91398        25.51586         0.10915
H         55.68743        46.61113         1.82492
H         53.91865        47.83314         0.68071
H         57.20873        28.90241         0.78346
H         57.19846        31.35389         0.81020
H         57.10268        33.17485         1.23689
H         56.99537        35.56477         1.64743
H         56.40879        36.97085         2.88689
H         55.99692        39.20515         3.88477
H         56.07570        42.37287         3.87158
H         56.49246        44.68212         2.97733
