         410
 CSIRO Nanostructure Databank - Neutral Graphene Oxide Data Set
C         27.82548        27.54394         1.27413
C         27.83436        28.93359         0.99884
C         26.62451        29.68045         0.91447
C         27.86825        31.71697         0.39904
C         26.64268        31.02172         0.60590
C         27.89974        33.12026         0.03324
C         26.71865        33.82286        -0.26613
C         27.96963        35.82129        -0.87290
C         26.75884        35.13845        -0.72813
C         28.01195        37.14731        -1.54249
C         26.78575        37.97189        -1.61922
C         28.08134        39.94523        -2.35933
C         26.81760        39.24976        -2.03010
C         28.06371        41.45419        -2.56637
C         26.80346        42.20704        -2.46342
C         27.88725        44.16819        -1.47435
C         26.72760        43.45459        -1.91228
C         27.81590        45.36750        -0.74904
C         30.24626        27.45079         1.02400
C         29.00693        26.82299         1.27804
C         30.29763        28.85456         0.83140
C         29.07864        29.60045         0.80024
C         30.34090        31.70124         0.46267
C         29.08703        31.00552         0.53337
C         30.36719        33.11833         0.22207
C         29.15196        33.80765        -0.06382
C         30.42367        35.89138        -0.50252
C         29.18667        35.18178        -0.48647
C         30.51602        37.25233        -1.00354
C         29.34172        37.85730        -1.67855
C         30.52745        40.04626        -1.80220
C         29.35830        39.32565        -1.92188
C         30.57717        41.48716        -1.94379
C         29.34209        42.19941        -2.31387
C         30.39877        44.27069        -1.21651
C         29.21450        43.64053        -1.80123
C         30.27136        45.56369        -0.66708
C         28.96544        46.07401        -0.40417
C         32.78390        24.61081         1.31092
C         31.59199        25.26046         1.29693
C         32.79038        27.38465         0.58999
C         31.47047        26.64207         0.81142
C         32.79611        28.85232         0.74354
C         31.55746        29.56476         0.75387
C         32.77660        31.74403         0.92345
C         31.53967        30.98530         0.67038
C         32.82728        33.18002         0.56436
C         31.60633        33.83106         0.21437
C         32.84770        35.94637        -0.05056
C         31.62297        35.23014        -0.09541
C         32.80731        37.45086        -0.07173
C         31.66328        37.99150        -0.88154
C         32.97408        40.14820        -1.11930
C         31.83185        39.29704        -1.62707
C         32.97663        41.53498        -1.28343
C         31.73254        42.21816        -1.62911
C         32.84091        44.39052        -1.10014
C         31.66628        43.64584        -1.36132
C         32.75524        45.76570        -0.76019
C         31.46888        46.35227        -0.49990
C         32.46304        48.55658        -0.43201
C         31.36011        47.74088        -0.26443
C         35.34898        23.12990         1.30177
C         35.28724        24.52723         1.02936
C         34.04396        25.25456         0.99295
C         35.28057        27.35007         0.59091
C         34.05450        26.64253         0.76335
C         35.26498        28.80634         0.57574
C         34.04094        29.50855         0.78669
C         35.37182        31.69954         0.94674
C         34.07580        30.95860         1.06584
C         35.33584        33.21111         0.73846
C         34.04142        33.88060         0.50655
C         35.31882        35.98843         0.07648
C         34.06444        35.27454         0.16832
C         35.33110        37.40087        -0.14958
C         34.12939        38.10223        -0.37405
C         35.37374        40.22237        -0.51918
C         34.15773        39.48187        -0.68424
C         35.37537        41.64897        -0.72812
C         34.18616        42.29298        -1.08079
C         35.40791        44.56435        -1.19338
C         34.14281        43.75240        -1.52956
C         35.27425        45.99320        -0.76676
C         33.93650        46.59499        -0.74579
C         35.53291        49.03738         0.10528
C         33.71438        47.98644        -0.72545
C         35.54750        50.30907         0.78329
C         37.78515        23.09814         1.04459
C         36.54497        22.44932         1.31943
C         37.75993        24.48519         0.74216
C         36.50982        25.20895         0.75288
C         37.72880        27.30032         0.14486
C         36.48154        26.61173         0.50903
C         37.71444        28.80386         0.11106
C         36.47908        29.53500         0.44269
C         37.77076        31.64363         0.23132
C         36.56219        30.93971         0.53383
C         37.72382        33.08354        -0.07019
C         36.53999        33.87883         0.21984
C         37.81291        35.99128        -0.06062
C         36.55255        35.27110         0.05174
C         37.82022        37.40915        -0.03937
C         36.57464        38.12267        -0.13423
C         37.77653        40.28956         0.25388
C         36.56109        39.53148        -0.19989
C         37.80044        41.72608        -0.19719
C         36.64026        42.36612        -0.58742
C         37.84870        44.56928        -0.29044
C         36.67575        43.82898        -0.81204
C         37.76146        46.04805        -0.26083
C         36.37176        46.63985        -0.21560
C         38.04567        48.84933         1.22492
C         36.24787        47.92034         0.46122
C         37.94430        50.24205         1.38865
C         36.62958        50.84554         1.43599
C         40.30394        20.26058         1.28686
C         39.12026        20.95435         1.31971
C         40.22857        23.04951         0.73314
C         39.03961        22.36839         1.04144
C         40.22852        24.45710         0.50513
C         38.99820        25.17873         0.49122
C         40.23073        27.27836         0.16438
C         39.01351        26.58339         0.28415
C         40.27403        28.76019         0.28318
C         38.99517        29.52510         0.37064
C         40.25952        31.66696         0.10885
C         39.00754        30.98277         0.15571
C         40.30515        33.07806         0.00223
C         39.06508        33.83057        -0.25042
C         40.27429        35.99107        -0.06766
C         39.04785        35.29254        -0.08590
C         40.30097        37.40623        -0.01262
C         39.06511        38.12827        -0.00675
C         40.28583        40.26826         0.09358
C         39.07328        39.54817         0.03516
C         40.26334        41.72251         0.08261
C         39.05545        42.43409        -0.06496
C         40.28516        44.59956         0.19921
C         39.03718        43.88396        -0.05710
C         40.28773        45.99277         0.29148
C         39.05864        46.79925         0.10307
C         40.33968        48.94397         0.58842
C         39.15120        48.20259         0.64344
C         40.36654        50.32478         0.95548
C         39.15437        51.00707         1.27280
C         40.36334        53.12418         1.37734
C         39.18635        52.42235         1.46626
C         42.76230        20.22200         0.87770
C         41.53925        20.88086         0.90174
C         42.83400        23.05980         0.45724
C         41.48040        22.29616         0.52274
C         42.72506        24.51312         0.67784
C         41.46573        25.16901         0.40250
C         42.72917        27.28569         0.16584
C         41.44459        26.57084         0.24664
C         42.77308        28.81055        -0.00702
C         41.50767        29.53357         0.06783
C         42.76014        31.65043         0.27227
C         41.50754        30.92897         0.16085
C         42.75931        33.08590         0.25537
C         41.53444        33.77214         0.05006
C         42.84331        35.98065        -0.06697
C         41.52663        35.22373        -0.20867
C         42.75784        37.41104         0.24367
C         41.55192        38.12135         0.14168
C         42.74357        40.30506         0.31233
C         41.52737        39.56852         0.20613
C         42.75662        41.70990         0.26314
C         41.51190        42.43985         0.18491
C         42.77676        44.52293         0.60902
C         41.50852        43.84068         0.27554
C         42.79788        46.03086         0.69454
C         41.56499        46.74185         0.26099
C         42.87438        48.97334         0.54973
C         41.60418        48.25455         0.28816
C         42.85169        50.38916         0.66247
C         41.60134        51.06055         0.89174
C         42.82713        53.18016         1.03767
C         41.59638        52.46001         1.09893
C         43.99145        20.90102         0.64550
C         45.39017        22.94448         0.30904
C         44.09295        22.27855         0.56488
C         45.69227        24.19278         0.85497
C         43.76442        25.29748         1.17581
C         45.01428        27.44780         1.09044
C         43.85262        26.68875         0.88345
C         45.18743        28.78428         0.66296
C         44.00449        29.52203         0.35431
C         45.22535        31.59036         0.82552
C         43.96802        30.92087         0.44152
C         45.21957        33.10268         0.81875
C         43.98994        33.82799         0.42443
C         45.29164        35.93628         0.50733
C         44.04793        35.21312         0.32369
C         45.29001        37.34595         0.49981
C         44.00462        38.07308         0.63018
C         45.28540        40.26345         0.31593
C         44.00550        39.59157         0.60661
C         45.24835        41.63215         0.04822
C         44.03042        42.42089         0.23423
C         45.24680        44.65014        -0.00418
C         44.05141        43.80182         0.41629
C         45.37182        46.06600         0.59640
C         44.09435        46.80948         0.71858
C         45.30021        49.00668         0.29320
C         44.09748        48.28458         0.49999
C         45.30093        50.42060         0.32986
C         44.07291        51.12356         0.61065
C         44.01899        52.53745         0.79704
C         47.43225        23.15278        -1.03198
C         46.33516        22.41613        -0.61897
C         47.66135        24.48553        -0.58035
C         46.77104        25.00926         0.40661
C         47.79368        27.27076         0.19213
C         46.90393        26.37194         0.79666
C         47.72463        28.71889         0.36797
C         46.49835        29.43045         0.61888
C         47.71020        31.57964         0.55484
C         46.50165        30.84940         0.64949
C         47.68230        33.02721         0.62872
C         46.51978        33.78415         0.69096
C         47.74758        35.95634         0.67362
C         46.53364        35.22727         0.63264
C         47.74838        37.36152         0.49866
C         46.51012        38.07739         0.45802
C         47.76744        40.19170         0.20711
C         46.51056        39.50934         0.31758
C         47.79315        41.59942         0.04895
C         46.52861        42.30142        -0.19280
C         47.77736        44.28232         0.55884
C         46.53767        43.83021        -0.02784
C         47.77670        46.41375         0.72844
C         46.59241        46.88254         0.28144
C         47.85887        49.03187         0.07506
C         46.54909        48.29602        -0.21833
C         47.76805        50.44295         0.09055
C         46.55265        51.10743         0.16100
C         49.75994        24.82011        -1.90137
C         48.74166        25.32455        -1.02608
C         49.99500        27.47035        -0.90599
C         48.82803        26.68336        -0.61432
C         50.08899        28.77299        -0.38454
C         48.92806        29.46085         0.13026
C         50.14094        31.65506         0.07915
C         48.94101        30.88514         0.31936
C         50.15738        33.03557         0.22180
C         48.97063        33.72843         0.74188
C         50.37263        35.93811         0.74398
C         49.01984        35.22630         0.88763
C         50.22489        37.38016         0.32043
C         49.00794        38.06727         0.37533
C         50.24585        40.22187         0.25767
C         49.00842        39.49447         0.25328
C         50.26050        41.64244         0.17982
C         49.01258        42.32337         0.02593
C         50.24519        44.58605         0.04473
C         49.00359        43.73907         0.24670
C         50.24148        46.09111         0.39284
C         49.09323        46.91266         0.40907
C         50.39311        48.94330         0.14053
C         49.10528        48.33494         0.19148
C         50.84753        25.57232        -2.24244
C         52.26237        27.57825        -1.92977
C         51.06526        26.88671        -1.69959
C         52.60985        28.77905        -1.07603
C         51.39826        29.46416        -0.43551
C         52.46926        31.74140        -0.91432
C         51.41440        30.95405        -0.23159
C         52.17298        33.06092        -1.12827
C         51.24895        33.83403        -0.31710
C         52.57090        36.05580        -0.63469
C         51.39360        35.19215        -0.11418
C         52.65063        37.37098         0.11153
C         51.46279        38.09282         0.25020
C         52.70482        40.23386         0.52097
C         51.48032        39.52440         0.36856
C         52.67752        41.64936         0.59881
C         51.47694        42.38526         0.37908
C         52.70846        44.54264         0.52608
C         51.49446        43.82212         0.41435
C         52.73323        45.98360         0.42806
C         51.51038        46.74559         0.33812
C         51.53171        48.17537         0.25478
C         54.49352        27.73854        -2.92761
C         53.32160        27.05402        -2.73605
C         54.65689        29.09873        -2.47339
C         53.61275        29.71634        -1.74376
C         54.84927        31.84097        -1.80897
C         53.64811        31.11016        -1.51225
C         55.05877        33.23677        -1.37393
C         53.99128        34.14581        -1.41435
C         55.15558        35.86753        -0.25385
C         53.92776        35.35890        -0.72145
C         55.22776        37.25077         0.30577
C         53.91130        38.02478         0.47744
C         55.19021        40.14469         0.63384
C         53.95354        39.50016         0.57233
C         55.24567        41.59540         0.94435
C         53.90278        42.37887         0.93882
C         55.16920        44.50349         0.73061
C         53.93646        43.83240         0.72824
C         55.17751        45.92080         0.60077
C         54.00051        46.62773         0.47473
C         55.80260        29.84356        -2.82631
C         55.91923        31.16902        -2.43208
C         56.25547        33.74185        -0.82580
C         56.30549        35.05311        -0.34451
C         56.41440        38.07694         0.08039
C         56.39397        39.41982         0.31924
C         56.45154        42.40182         0.70664
C         56.40896        43.75981         0.70829
O         47.73919        45.26555         1.53315
O         42.98514        27.88945        -1.14395
O         36.99085        48.02550         1.66070
O         38.57657        46.72583        -1.29086
O         43.94746        38.86001         1.87828
O         32.00502        26.87010        -0.53917
O         39.65850        29.12815         1.61648
O         28.78689        37.09329        -2.80038
O         52.85002        33.75914        -2.14357
O         41.68487        47.50985        -0.98618
O         36.42012        44.29982        -2.21693
O         42.10646        22.64343        -0.74882
O         34.72597        48.91732        -1.04563
O         54.54662        41.93575         2.17899
O         42.60983        45.26087         1.90786
O         33.32803        31.37661         2.24277
O         49.06438        34.37071         2.08281
O         45.10040        32.34819         2.08149
O         46.68450        43.20895        -1.34551
O         29.46861        43.31674        -3.22603
O         35.57997        32.61328         2.07080
O         28.13192        40.53448        -3.70231
O         42.31416        35.61154        -1.38924
O         37.65411        28.05296        -1.14052
O         46.06738        26.86186         1.81176
O         54.61126        37.36970         1.61618
O         38.29763        33.37074        -1.40143
O         44.86858        46.36959         1.91470
O         44.83163        24.68719         1.85536
O         51.80564        30.05244         0.86144
O         32.25043        38.91442        -2.98513
H         31.47089        38.53087        -3.44249
O         50.31144        44.67161        -1.43984
H         50.27332        43.75519        -1.78988
O         53.36984        28.19111         0.03085
H         53.27195        28.81347         0.78986
O         44.91643        44.97360        -1.38724
H         45.30777        44.26467        -1.95367
O         46.41403        48.28446        -1.67648
H         46.35737        49.21627        -1.97613
O         37.64394        40.37453         1.73006
H         37.67944        39.45803         2.07878
O         50.97498        36.02541         2.06781
H         50.58691        35.28878         2.60011
O         52.20489        36.43390        -2.00239
H         52.21865        35.60106        -2.53095
O         34.05752        43.69817        -2.98163
H         34.98513        43.68191        -3.31640
O         32.51127        37.84435         1.33245
H         33.18013        37.40872         1.90340
H         26.86668        27.03397         1.44450
H         25.66758        29.16548         1.08185
H         25.68803        31.55976         0.53607
H         25.74241        33.32619        -0.19769
H         25.81398        35.61680        -1.01825
H         25.82120        37.52033        -1.34789
H         25.87750        39.81091        -2.12467
H         25.89105        41.72962        -2.84587
H         25.74695        43.94142        -1.80517
H         26.82928        45.77940        -0.49181
H         28.97051        25.73743         1.44294
H         28.84849        47.03970         0.10482
H         32.79988        23.56790         1.65587
H         30.69634        24.74566         1.67313
H         32.37285        49.64883        -0.37483
H         30.38404        48.19515        -0.05274
H         34.42702        22.57044         1.50853
H         34.65702        50.94192         0.64783
H         36.53151        21.37460         1.54467
H         36.53726        51.87413         1.81530
H         40.31257        19.18927         1.53669
H         38.20587        20.40978         1.59142
H         40.37031        54.21247         1.53474
H         38.25501        52.95626         1.69906
H         42.79399        19.14482         1.09732
H         42.81137        54.26865         1.19347
H         44.91358        20.30145         0.63741
H         44.94425        53.12843         0.76489
H         48.11167        22.70637        -1.77054
H         46.16183        21.41940        -1.04887
H         48.68970        51.04375         0.11321
H         46.56619        52.20541         0.18518
H         49.67314        23.79880        -2.29571
H         50.48950        50.02977         0.00545
H         51.60461        25.12870        -2.90147
H         52.49771        48.69628         0.22003
H         55.29781        27.29074        -3.52932
H         53.20382        26.07566        -3.22162
H         56.13976        46.45256         0.60505
H         54.06283        47.72074         0.39745
H         56.61521        29.35666        -3.38385
H         56.84040        31.72541        -2.65615
H         57.15058        33.10698        -0.76768
H         57.25910        35.43768         0.04348
H         57.32584        37.60545        -0.31481
H         57.32754        39.98518         0.19211
H         57.41241        41.89683         0.53476
H         57.34040        44.33091         0.57832
