         300
 CSIRO Nanostructure Databank - Neutral Graphene Oxide Data Set
C         30.23162        31.78440        -0.26725
C         30.34139        32.97244        -0.58701
C         30.55456        36.15865        -1.16224
C         30.80468        37.35194        -1.50881
C         30.93533        40.40270        -2.26590
C         30.92182        41.65131        -2.35192
C         32.53372        28.88419         0.30887
C         31.46401        29.51198         0.35983
C         32.67792        31.50007        -0.31992
C         31.28799        30.73882        -0.51127
C         32.75121        32.97880        -0.50528
C         31.52362        33.81525        -0.78224
C         32.88486        35.89951        -0.71747
C         31.63779        35.29094        -0.76567
C         33.15586        37.33020        -1.15570
C         31.91145        38.17540        -1.54098
C         33.04047        40.32103        -1.12016
C         32.00316        39.58773        -1.70016
C         33.11882        41.82335        -1.20521
C         31.38080        42.63178        -1.36929
C         32.87785        44.55486        -1.05905
C         31.92010        43.98706        -1.61648
C         35.28646        27.29362         0.77529
C         35.17187        28.60349         0.08027
C         33.87004        29.32184        -0.10467
C         35.17282        31.58051        -0.47197
C         33.84991        30.82004        -0.24472
C         35.14184        32.89730         0.35773
C         33.85092        33.72120         0.25190
C         35.12606        35.89563         0.43592
C         34.14785        35.08420        -0.44093
C         35.10719        37.39618         0.55473
C         33.91090        38.18259        -0.05320
C         35.11234        40.35765         0.37483
C         34.27881        39.58088        -0.63129
C         35.05015        41.84243         0.51784
C         33.81221        42.59318        -0.03899
C         35.26204        44.66831        -0.23327
C         34.08441        44.03957        -0.46043
C         35.61302        46.04563        -0.36151
C         37.75385        27.18809         0.69665
C         36.44594        26.75946         0.75294
C         37.73946        28.73634         0.71942
C         36.45111        29.40841         0.16244
C         37.70921        31.53355        -0.20683
C         36.43617        30.74525        -0.10233
C         37.68154        33.02402         0.05052
C         36.41285        33.65484         0.54200
C         37.67465        35.91969         0.98755
C         36.39958        35.15420         0.78373
C         37.77122        37.47016         1.04990
C         36.37879        38.16301         0.93962
C         37.64925        40.42760         0.56629
C         36.39153        39.64990         0.74272
C         37.62005        41.77659         0.74421
C         36.32867        42.60090         0.94557
C         37.70503        44.71520         0.69220
C         36.54814        43.88583         0.08803
C         37.76324        46.26561         0.63693
C         36.62655        46.74900        -0.18718
C         40.26719        24.46413        -0.09290
C         39.14297        25.05276         0.03321
C         40.33701        27.10455         0.53174
C         38.98285        26.38415         0.64149
C         40.28776        28.57747         0.23955
C         38.99686        29.30988         0.08398
C         40.31028        31.54843         0.24900
C         39.04030        30.81293        -0.09791
C         40.26528        33.04606         0.40795
C         38.96328        33.77659         0.28535
C         40.18746        35.89358         0.26356
C         39.00535        35.16955         0.92085
C         40.11643        37.39538        -0.03125
C         38.69678        37.97933        -0.06422
C         40.18340        40.41780         0.08289
C         38.79784        39.79807        -0.24434
C         40.20365        41.82585         0.60978
C         38.91398        42.51736         1.04490
C         40.21932        44.68764         1.10511
C         38.96910        43.99934         0.69124
C         40.24586        46.18556         1.29563
C         39.10497        46.95438         0.57597
C         40.32236        48.92871         1.02958
C         39.15951        48.39934         1.13658
C         42.83925        24.56624        -0.72618
C         41.52413        24.98411        -0.40890
C         42.83194        27.27379        -0.17324
C         41.53740        26.47952        -0.16139
C         42.83214        28.46443         0.81611
C         41.53556        29.31076         0.67864
C         42.79631        31.55232         0.96493
C         41.49147        30.80100         0.82383
C         42.77503        33.06581         0.95619
C         41.46600        33.80511         0.91319
C         42.70309        35.91881         0.21813
C         41.45348        35.23608         0.53426
C         42.66312        37.41408         0.08068
C         41.37141        38.14930         0.44473
C         42.64348        40.29772         0.27685
C         41.44864        39.64290         0.17102
C         42.75252        41.72807         0.67849
C         41.48659        42.45738         1.17079
C         42.82180        44.66139         1.02868
C         41.50636        43.95366         0.70204
C         42.86750        46.13479         1.31054
C         41.57639        46.93320         1.69511
C         42.92208        48.87879         1.23444
C         41.59837        48.44038         1.25383
C         43.91009        25.19813        -0.77837
C         45.40857        27.01703         0.25029
C         44.23326        26.66545        -0.68417
C         45.45183        28.58793         0.50927
C         44.14701        29.28658         0.76700
C         45.34569        31.58968         0.47550
C         44.08721        30.81202         0.78459
C         45.33959        33.07869         0.48867
C         43.96998        33.79831         0.34439
C         45.25670        35.91908         0.18865
C         43.98343        35.28695         0.75544
C         45.22433        37.37724        -0.11300
C         43.97164        38.12010         0.26283
C         45.11505        40.25331        -0.49291
C         43.96745        39.60189         0.28008
C         45.21154        41.77910        -0.28841
C         44.03624        42.46467         0.39558
C         45.38059        44.65869         0.54792
C         44.04806        43.97790         0.43549
C         45.41951        46.11339         1.13226
C         44.14009        46.88460         0.79042
C         44.03830        48.29810         1.36784
C         47.69145        27.52019        -0.72795
C         46.76206        26.80061        -0.36600
C         47.92022        28.94575        -0.46806
C         46.52795        29.51914        -0.10588
C         47.87195        31.53199         1.06808
C         46.60460        30.81828         0.72492
C         47.92637        33.07173         1.26045
C         46.58434        33.82949         0.94021
C         47.79988        36.04463         0.25046
C         46.56228        35.31028         0.62245
C         47.75199        37.36124        -0.15753
C         46.49464        38.13653        -0.18028
C         47.65070        40.23499        -0.78215
C         46.43276        39.49619        -0.35455
C         47.80400        41.65218        -0.30895
C         46.54603        42.47015        -0.13516
C         47.99475        44.56049         0.26922
C         46.65960        43.79112         0.66312
C         47.67171        45.97945         0.16461
C         46.66164        46.64360         0.40386
C         50.54824        29.09710        -0.18259
C         49.18806        29.65757        -0.14259
C         50.42548        31.69713         1.14039
C         49.20627        30.72690         0.99491
C         50.27683        33.04453         0.41373
C         49.11257        33.75152         0.54490
C         50.35532        36.04022         0.04785
C         49.09881        35.31116         0.60168
C         50.31233        37.48550        -0.40130
C         48.94880        37.96415        -0.90403
C         50.15509        40.24151        -1.38864
C         48.89436        39.48184        -1.10667
C         50.19309        41.59971        -1.29983
C         49.13921        42.31777        -0.49269
C         50.32579        44.37048        -1.00942
C         49.19545        43.83973        -0.24442
C         51.59982        29.59459         0.21261
C         52.79390        31.78568         0.30759
C         52.08222        30.73040         1.00038
C         52.63755        32.83673        -0.31040
C         51.44184        33.68622        -0.30965
C         52.63088        36.03351        -0.80724
C         51.48932        35.16450        -0.47206
C         52.55916        37.20454        -1.18581
C         51.60887        38.31578        -0.88850
C         52.38543        40.30662        -2.25223
C         51.28899        39.33134        -1.98781
C         52.47200        41.53216        -2.15578
C         51.26610        42.42276        -2.14636
C         51.27843        43.78130        -1.52446
O         42.13944        33.51812         2.18092
O         35.77482        32.91184         1.65907
O         32.40020        33.35845        -1.86832
O         36.20940        39.04746         2.08504
O         43.81589        41.86657         1.70521
O         45.80519        42.52550        -1.37618
O         45.07612        28.89329         1.85451
O         46.39158        34.81274         1.99873
O         34.50612        28.61477        -1.19389
O         47.04342        30.86689         2.08590
O         44.58131        39.97749        -1.88187
O         43.58575        31.15960         2.12284
O         40.34138        41.60147        -0.80746
O         41.93781        27.35097        -1.29723
O         39.85744        33.67991        -0.84620
O         39.63900        28.70259        -1.06800
O         49.08940        44.19918         1.14911
O         50.60480        37.15064         0.98215
O         34.56904        36.53609         1.61520
O         43.10858        45.14377         2.36431
O         45.16898        36.37096        -1.17850
O         44.67667        44.59813        -0.71128
O         34.53296        40.94669         1.56905
O         41.20838        29.95773         1.96792
O         47.94342        39.89415        -2.18622
O         48.54901        29.87551        -1.40947
O         38.49246        39.95258        -1.52501
O         39.90706        26.58487         1.78408
O         40.22996        36.47004        -1.10125
O         40.01007        31.16371        -1.11934
O         44.21079        38.85666         1.51486
O         42.69719        36.58988        -1.09255
O         39.95251        45.31623         2.40986
O         48.77642        41.67064         0.77722
O         45.53585        32.33164        -0.76793
O         36.88614        35.45555         2.12120
O         35.19980        32.05143        -1.78861
O         37.39403        45.61374         1.83863
O         51.02800        34.31780        -1.54884
O         37.63013        32.49512        -1.29602
O         33.97482        37.23869        -2.34182
H         34.31071        36.30518        -2.44274
O         49.15245        35.50033         2.05213
H         49.54428        36.39337         2.21618
O         49.26980        29.87188         2.14507
H         49.47462        30.44339         2.92164
O         43.63280        33.85005        -1.05594
H         44.20646        33.22594        -1.55982
O         52.04291        39.07984         0.21083
H         52.19011        38.48022         0.97439
O         36.18695        42.98311         2.31898
H         35.69447        42.26378         2.77546
O         45.22525        26.34586         1.46582
H         45.35978        26.97248         2.21217
O         52.50868        30.44448         2.26046
H         51.98853        29.70615         2.63467
O         41.46444        42.39909         2.58917
H         42.38718        42.49273         2.91662
O         37.83202        29.16079         2.10261
H         37.11431        28.72754         2.61209
O         41.51813        43.98882        -0.73956
H         40.92031        43.29878        -1.11281
O         50.54704        32.02356         2.51998
H         49.76671        32.58474         2.78889
O         44.00901        47.01369        -0.60636
H         44.88918        47.21130        -0.99443
O         32.98141        38.44317         0.99632
H         33.09418        37.74402         1.68250
O         38.04396        37.57354        -1.24641
H         38.19746        38.30864        -1.90947
O         41.58316        47.05045         3.11254
H         41.94567        46.21936         3.49514
O         38.93079        42.55748         2.49571
H         38.08307        42.97214         2.79247
O         45.39185        40.60486        -2.88266
H         46.08799        39.93115        -3.08654
O         41.28607        38.08429         1.89692
H         42.11082        38.46514         2.27671
O         45.93553        29.87144        -1.37185
H         46.64905        30.15749        -1.98611
O         48.85029        37.35019        -2.21087
H         48.25339        37.90349        -2.76238
O         34.82508        34.78890        -1.68339
H         34.86614        33.78427        -1.86266
O         42.76304        27.83770         2.10184
H         42.59331        28.54004         2.76972
O         33.79542        42.16946        -2.38764
H         33.53175        41.56384        -3.11098
O         37.02880        43.39590        -1.17755
H         37.06080        44.12989        -1.82592
O         50.74380        42.51459        -3.44920
H         51.33600        43.06775        -3.99932
O         45.63195        46.10208         2.50708
H         46.30234        45.41951         2.73333
O         44.48620        27.23476        -1.93958
H         43.68121        27.14011        -2.49569
O         38.35989        37.75735         2.31962
H         37.69379        38.26790         2.84346
O         48.14309        33.19506         2.68176
H         48.12992        34.16015         2.89815
O         31.21465        30.34884        -1.84595
H         30.33781        29.96002        -2.03632
O         43.89739        35.50181         2.16294
H         44.69183        35.12365         2.60756
O         39.42958        34.97933         2.28742
H         39.14938        35.76821         2.80667
O         50.86133        38.68325        -3.15567
H         50.74768        39.34177        -3.87090
O         30.62489        42.56784        -0.23455
H         31.02898        43.13112         0.46340
O         39.48874        47.02153        -0.79375
H         38.79897        47.51645        -1.28626
O         35.17414        39.46616        -1.74864
H         34.85788        38.74500        -2.35072
O         32.88008        42.72060         1.05495
H         32.98694        41.92053         1.62538
O         33.33557        33.95589         1.56634
H         34.09008        33.90885         2.19953
O         46.78103        43.47030         2.05270
H         47.71457        43.18874         2.21397
