         341
 CSIRO Nanostructure Databank - Neutral Graphene Oxide Data Set
C          1.32327         2.13401        -0.66720
C          1.33688         3.49952        -0.81755
C          2.51515         1.38738        -0.51730
C          2.64025         4.22839        -1.00724
C          1.52253         6.51340        -1.12837
C          1.39007         7.81420        -0.78239
C          2.59200         5.68574        -0.61041
C          2.15264         8.36343         0.39793
C          1.08627        10.66195        -0.09305
C          1.16705        11.99650        -0.30963
C          2.21438         9.90063         0.47263
C          2.37149        12.75603        -0.04724
C          1.16921        15.00777         0.06377
C          1.18673        16.36763         0.08909
C          2.34462        14.21258        -0.46762
C          2.36848        17.13192        -0.20650
C          2.40737        18.51784        -0.18787
C          3.76242         2.04778        -0.33588
C          3.79200         3.48140        -0.38460
C          4.94357         1.33488        -0.02917
C          4.94418         4.16901         0.00642
C          3.64957         6.28919         0.04229
C          3.53081         7.69427         0.52048
C          4.91291         5.60556         0.19178
C          4.81157         8.47948         0.69945
C          3.51251        10.67861         0.69091
C          3.51070        12.13115         0.38411
C          4.81893         9.96233         0.64466
C          4.78109        12.88674         0.69468
C          3.63454        14.93933        -0.20150
C          3.65227        16.40947        -0.55986
C          4.78487        14.29781         0.14965
C          4.81171        17.12923         0.14507
C          3.62262        19.23710        -0.34675
C          4.86119        18.58903        -0.24568
C          6.16691         2.01398         0.18655
C          6.15793         3.44621         0.22735
C          7.39949         1.32697         0.36097
C          7.38147         4.16034         0.35374
C          6.10088         6.31381         0.42979
C          6.09960         7.76626         0.50606
C          7.35917         5.61155         0.41780
C          7.27918         8.47765         0.51035
C          6.01007        10.64464         0.52396
C          6.04862        12.10105         0.39706
C          7.29177         9.92813         0.47949
C          7.23889        12.76096         0.30281
C          6.05156        14.99907         0.11046
C          6.10189        16.38490        -0.04846
C          7.30751        14.25864         0.43916
C          7.33051        17.09169        -0.13154
C          6.10296        19.23554        -0.33376
C          7.33302        18.52877        -0.24025
C          8.61370         2.02861         0.44178
C          8.59695         3.45627         0.38741
C          9.88427         1.34835         0.51253
C          9.88368         4.20248         0.13460
C          8.56652         6.31307         0.54997
C          8.55341         7.77708         0.90254
C          9.81165         5.64606         0.55555
C          9.81195         8.47802         0.48449
C          8.48886        10.60314         0.40650
C          8.53314        12.07720         0.66334
C          9.75392         9.89049         0.00160
C          9.79697        12.76810         0.19115
C          8.51168        14.86584        -0.30027
C          8.56218        16.37446        -0.16154
C          9.80837        14.14871         0.00075
C          9.76368        17.06560        -0.25140
C          8.57976        19.20412        -0.29417
C          9.79088        18.50413        -0.26675
C         11.08729         2.04258         0.61621
C         11.07808         3.49517         0.71322
C         12.34790         1.36315         0.49603
C         12.14635         4.24909         1.16176
C         11.00973         6.36630         0.69093
C         11.01095         7.80446         0.53194
C         12.25242         5.66604         0.79946
C         12.28156         8.48719         0.37924
C         11.04512        10.63195         0.25706
C         11.03464        12.05086         0.21931
C         12.26708         9.93016         0.29603
C         12.27209        12.76590         0.21341
C         11.03960        14.85655        -0.00427
C         11.03136        16.31152        -0.29734
C         12.25197        14.18529         0.17378
C         12.30397        17.07978        -0.16243
C         11.05554        19.20813        -0.26200
C         12.26303        18.56341        -0.16355
C         13.53808         1.98681         0.11284
C         13.61595         3.36138        -0.52444
C         14.77885         1.31933         0.24301
C         14.75891         4.22277        -0.02810
C         13.46825         6.31054         0.52246
C         13.48411         7.76093         0.38534
C         14.71130         5.54956         0.32166
C         14.73506         8.48392         0.25308
C         13.51172        10.64504         0.23069
C         13.51941        12.06003         0.20195
C         14.74226         9.90727         0.15155
C         14.76919        12.78142         0.08138
C         13.51966        14.88411         0.61228
C         13.51672        16.40021         0.39713
C         14.79082        14.20226         0.13568
C         14.79461        17.14307         0.20277
C         13.53789        19.25010        -0.20612
C         14.72828        18.58917        -0.14728
C         16.01356         1.98056         0.10953
C         16.06236         3.46472        -0.23913
C         17.22519         1.28196         0.21489
C         17.22421         4.13896         0.45139
C         15.97523         6.32537         0.66469
C         15.96724         7.77943         0.23012
C         17.24745         5.60231         0.33537
C         17.17187         8.46117         0.00231
C         15.97354        10.61108        -0.02384
C         15.98505        12.05268        -0.08240
C         17.18684         9.87916        -0.14903
C         17.20888        12.75935        -0.26250
C         15.99927        14.91808        -0.01490
C         16.04641        16.37231        -0.00627
C         17.21986        14.19371        -0.25756
C         17.21042        17.05908        -0.29854
C         16.03450        19.32268        -0.02254
C         17.18123        18.53386        -0.66784
C         18.49346         1.93609         0.23569
C         18.49263         3.38229         0.57700
C         19.70233         1.27993         0.08018
C         19.80983         4.12426         0.66773
C         18.47273         6.26942         0.19933
C         18.42871         7.68207        -0.33442
C         19.69085         5.60365         0.35930
C         19.70464         8.45321        -0.13475
C         18.43465        10.58387        -0.38301
C         18.43986        12.03219        -0.44176
C         19.64427         9.85918        -0.40219
C         19.64576        12.75738        -0.56865
C         18.43961        14.90697        -0.43230
C         18.45838        16.34913        -0.45900
C         19.67710        14.19007        -0.54232
C         19.65829        17.06033        -0.59464
C         18.49495        19.21662        -0.45198
C         19.68789        18.50785        -0.48321
C         20.94186         2.00074        -0.09459
C         20.84394         3.50272        -0.29801
C         22.12558         1.34910        -0.26002
C         22.17410         4.22902        -0.20875
C         20.97432         6.36690         0.50406
C         20.91524         7.79167         0.01774
C         22.19390         5.61593         0.00277
C         22.16848         8.50066        -0.02695
C         20.91244        10.53289        -0.68039
C         20.91234        12.06016        -0.79764
C         22.15885         9.86074        -0.30733
C         22.17756        12.77876        -0.59238
C         20.90863        14.88906        -0.63563
C         20.93741        16.35791        -0.95303
C         22.15474        14.20134        -0.55770
C         22.17585        17.06239        -0.45125
C         20.93585        19.18526        -0.36115
C         22.16508        18.48031        -0.26852
C         23.37538         2.04478        -0.72250
C         23.38364         3.52732        -0.42434
C         24.63258         1.36897        -0.24820
C         24.61094         4.21181        -0.44340
C         23.41219         6.33834        -0.09322
C         23.43195         7.77188        -0.00429
C         24.63172         5.64084        -0.34400
C         24.65541         8.44687        -0.13655
C         23.37395        10.65018        -0.15266
C         23.39176        12.08023        -0.48165
C         24.70462         9.90921        -0.02914
C         24.63523        12.75621        -0.49188
C         23.37927        14.90152        -0.39368
C         23.37574        16.34493        -0.25963
C         24.62289        14.19613        -0.40445
C         24.57109        17.02185         0.07791
C         23.37706        19.15357         0.02123
C         24.59069        18.44371         0.19593
C         25.83018         2.05294        -0.17094
C         25.86760         3.48865        -0.41838
C         27.06752         1.38993         0.12047
C         27.08100         4.16084        -0.49514
C         25.85217         6.34834        -0.48415
C         25.88013         7.74931        -0.37341
C         27.08725         5.60911        -0.92080
C         27.12838         8.47747        -0.46240
C         25.92724        10.63998        -0.40113
C         25.87165        12.02813        -0.54003
C         27.15651         9.88939        -0.50059
C         27.11398        12.78212        -0.83464
C         25.82479        14.89553        -0.23052
C         25.78624        16.22419         0.46060
C         27.09879        14.26552        -0.59362
C         27.07982        16.98622         0.45590
C         25.80506        19.11009         0.52065
C         27.04151        18.41694         0.69196
C         28.27804         2.07004         0.09046
C         28.31844         3.47971        -0.24869
C         29.51464         1.39655         0.38801
C         29.55033         4.15696        -0.27437
C         28.35944         6.34595        -0.59224
C         28.36944         7.73050        -0.50520
C         29.63937         5.57935        -0.79260
C         29.63017         8.45473        -0.47222
C         28.41457        10.57747        -0.59006
C         28.43046        12.05098        -0.78361
C         29.62135         9.87825        -0.55237
C         29.66159        12.79446        -0.39148
C         28.38402        14.96945        -0.24251
C         28.30918        16.31587         0.38663
C         29.62866        14.17759        -0.09220
C         29.51499        16.96452         0.72902
C         28.21689        19.08724         1.02084
C         29.46149        18.33166         1.36543
C         30.70009         2.07477         0.38416
C         30.74985         3.47250         0.05520
C         31.97380         4.18421         0.10789
C         30.87044         6.32516        -0.32824
C         30.85512         7.74301        -0.34042
C         32.02066         5.56887        -0.03343
C         32.07397         8.51907        -0.16785
C         30.91352        10.63807        -0.80432
C         30.86757        12.06955        -0.27368
C         32.11570         9.85214        -0.35701
C         32.01899        12.74663         0.15630
C         30.80499        14.85394         0.31255
C         30.77164        16.30043         0.59161
C         31.98848        14.10740         0.45172
C         31.94274        17.05657         0.68822
C         30.72307        19.11583         1.14217
C         31.89323        18.47345         0.87278
O          2.62694        10.32323         1.81163
O         13.00696         3.64584        -1.54205
O         24.02907        10.42498         1.16011
O         14.14371        17.03714         1.55672
O         20.94202        11.20151        -1.99836
O         11.89709        16.56686        -1.48310
O         27.80811        12.42049        -2.07263
O         17.62973         3.61481         1.76838
O         27.85303        15.01293        -1.61963
O          4.08834         7.89139         1.85725
O         25.59277        15.88665         1.91277
H         25.63856        16.73147         2.41161
O          8.60438        12.24811         2.12627
H          8.18852        13.13784         2.32303
O          3.80661        16.50806        -2.00929
H          4.65950        16.08353        -2.24509
O         29.40776        18.08509         2.84576
H         30.24745        17.63607         3.08462
O         16.91413        18.57700        -2.11036
H         17.67683        18.16160        -2.56625
O          2.16417        14.20016        -1.92511
H          2.45802        15.08236        -2.25921
O         18.34946         7.48856        -1.79292
H         18.40268         8.37386        -2.21271
O         20.31686         3.94295         2.02027
H         19.52428         3.89046         2.60327
O         29.79872         5.44869        -2.25648
H         28.90261         5.23026        -2.61576
O          4.54610        17.11508         1.57944
H          5.07894        16.39764         1.98669
O          8.56135         7.82648         2.38111
H          7.69074         7.49636         2.69168
O          8.22804        14.61233        -1.71565
H          9.00798        14.90178        -2.23540
O          1.40026         7.94883         1.56895
H          1.89120         8.31827         2.33868
O         21.03521        16.44245        -2.44486
H         20.46271        15.73635        -2.81478
O         27.03091         5.56540        -2.41435
H         26.92828         6.49198        -2.72333
O         10.02124         4.21725        -1.33126
H          9.23733         4.67757        -1.69841
O         31.03119        10.77596        -2.25730
H         30.24075        11.26425        -2.57470
O          7.22907        14.54836         1.83579
O          4.82959        13.07999         2.14335
H          5.67996        13.57284         2.31747
O         21.18091         6.49468         1.95988
H         21.12639         5.57334         2.32179
O         20.32072         3.71834        -1.63066
H         20.91926         3.26891        -2.26471
O          2.88304         4.21447        -2.47071
H          2.92820         3.27313        -2.74401
O         16.35616         3.55670        -1.66130
H         15.53941         3.33765        -2.15913
O         16.30168        19.51218         1.37785
H         15.90679        18.76582         1.87578
O         13.51574        14.65675         2.05713
H         14.00208        15.41356         2.46239
O         23.36511         1.92400        -2.20065
H         24.22208         2.27784        -2.52299
O         15.94967         6.37463         2.14394
H         16.75853         6.84263         2.44320
O          9.66136         9.80082        -1.48112
H         10.47649         9.35502        -1.79786
O         13.07267         3.73107         2.01786
H         13.72213         4.41968         2.27025
H          0.36155         1.59994        -0.64706
H          0.39352         4.05205        -0.93527
H          2.46750         0.29217        -0.43875
H          0.87346         6.08164        -1.90466
H          0.60422         8.42104        -1.25323
H          0.16471        10.12670        -0.36150
H          0.30741        12.52743        -0.74282
H          0.23999        14.47379         0.31338
H          0.28417        16.91945         0.39667
H          1.47219        19.08301        -0.05485
H          4.91887         0.23544         0.00200
H          3.58644        20.32817        -0.48849
H          7.40466         0.22700         0.37256
H          6.13245        20.32312        -0.50857
H          9.89830         0.25301         0.40831
H          8.59127        20.30300        -0.34955
H         12.38301         0.28642         0.73337
H         11.03192        20.30736        -0.31340
H         14.77990         0.26281         0.55790
H         13.53166        20.34460        -0.32565
H         17.19955         0.18138         0.25455
H         15.97525        20.33337        -0.49915
H         19.71573         0.18522        -0.03865
H         18.51124        20.31435        -0.37938
H         22.15867         0.25154        -0.16933
H         20.93483        20.27980        -0.25358
H         24.61999         0.27721        -0.10790
H         23.37109        20.24791         0.13078
H         27.05101         0.31663         0.36244
H         25.79188        20.20291         0.64786
H         29.48469         0.32394         0.62891
H         28.20715        20.17953         1.15145
H         31.63987         1.55696         0.62558
H         32.89441         3.63609         0.35604
H         32.98086         6.07272         0.14527
H         33.00311         7.99346         0.09335
H         33.08330        10.36754        -0.28059
H         32.97383        12.21407         0.25547
H         32.91393        14.59635         0.78514
H         32.92287        16.58665         0.53205
H         30.70397        20.20329         1.30530
H         32.82947        19.04394         0.78540
