         324
 CSIRO Nanostructure Databank - Neutral Graphene Oxide Data Set
C          1.34348         1.99554         1.49531
C          1.27573         3.41719         1.36203
C          2.51176         1.30648         1.29290
C          2.36227         4.15308         0.93969
C          1.18942         6.34313         0.83404
C          1.17856         7.77254         0.81195
C          2.35473         5.60969         0.87947
C          2.32258         8.52643         0.88126
C          1.12061        10.79980         0.56866
C          1.18704        12.14343         0.39362
C          2.30117        10.01052         0.94975
C          2.43142        12.89159         0.44054
C          1.31409        15.04755        -0.21470
C          1.31758        16.39528        -0.44969
C          2.45637        14.32180         0.27415
C          2.40593        17.24125         0.03403
C          2.58856        18.62929        -0.41816
C          3.71309         1.99002         0.90093
C          3.60101         3.43017         0.57726
C          4.93519         1.34994         0.84327
C          4.90110         4.20990         0.40663
C          3.64577         6.32997         0.99888
C          3.63256         7.85524         1.05832
C          4.90967         5.66412         0.63623
C          4.88064         8.58020         0.69358
C          3.63849        10.74614         0.89480
C          3.63901        12.19140         0.57729
C          4.85190         9.95649         0.59453
C          4.89999        12.87933         0.52359
C          3.69947        15.01043         0.43157
C          3.69363        16.48720         0.47466
C          4.90730        14.30846         0.53187
C          4.94814        17.22499         0.41084
C          3.76162        19.28457        -0.22719
C          4.97116        18.61236         0.22448
C          6.18000         2.05301         0.66423
C          6.17223         3.48593         0.53507
C          7.39912         1.37591         0.76001
C          7.36749         4.21702         0.49181
C          6.10210         6.37244         0.54449
C          6.11540         7.82815         0.51562
C          7.35240         5.65315         0.38787
C          7.32256         8.49053         0.27722
C          6.05075        10.70818         0.19157
C          6.10755        12.15662         0.45039
C          7.33858         9.94738         0.06751
C          7.40456        12.78548         0.76062
C          6.23512        15.02026         0.38162
C          6.17937        16.48656         0.75185
C          7.43968        14.28415         0.98172
C          7.46769        17.25157         0.85585
C          6.21241        19.31406         0.22234
C          7.44369        18.67036         0.42884
C          8.65079         2.07029         0.70871
C          8.62436         3.51826         0.48283
C          9.85770         1.43668         0.94586
C          9.80198         4.21083         0.23399
C          8.56064         6.34688         0.19548
C          8.56552         7.78405         0.11022
C          9.79897         5.62753         0.06425
C          9.75185         8.47340        -0.20146
C          8.62000        10.68357         0.19332
C          8.65284        12.03263         0.47118
C          9.80493         9.92506        -0.16825
C          9.94906        12.75096         0.43643
C          8.77236        15.01947         0.98073
C          8.82662        16.56565         0.99165
C         10.00446        14.25799         0.54669
C          9.91259        17.15743         0.12230
C          8.66305        19.29439         0.11371
C          9.87279        18.56329        -0.05816
C         11.11930         2.26824         1.05316
C         11.05963         3.39875         0.02906
C         12.42411         1.51979         0.97306
C         12.31680         4.22646        -0.00334
C         11.00679         6.31568        -0.20062
C         10.98904         7.74643        -0.40229
C         12.25036         5.58798        -0.23688
C         12.14222         8.42427        -0.79739
C         10.95982        10.60090        -0.51759
C         11.12501        12.01478        -0.16493
C         12.11428         9.86857        -1.06377
C         12.27187        12.77269        -0.72787
C         11.10453        14.99117        -0.12297
C         11.06903        16.40615        -0.25379
C         12.14088        14.24524        -0.85258
C         12.23599        17.12873        -0.72559
C         11.06351        19.25075        -0.44927
C         12.22740        18.55972        -0.70983
C         13.59025         2.16107         0.65040
C         13.58619         3.54567         0.16085
C         14.87662         1.51774         0.84380
C         14.77536         4.18415        -0.12245
C         13.51940         6.32620        -0.44370
C         13.46020         7.76994        -0.80729
C         14.72549         5.51314        -0.79301
C         14.61668         8.44471        -1.49026
C         13.39920        10.62638        -1.30129
C         13.38422        12.10171        -1.14187
C         14.69983         9.91105        -1.35652
C         14.63047        12.77560        -1.57914
C         13.36208        15.01705        -1.38852
C         13.43529        16.44850        -1.07579
C         14.63840        14.27454        -1.67143
C         14.68730        17.11172        -1.12563
C         13.47512        19.33133        -1.06487
C         14.74515        18.52887        -0.92074
C         16.07990         2.12389         0.59952
C         16.08753         3.54950         0.11403
C         17.31729         1.52191         1.11318
C         17.27832         4.26787        -0.47909
C         15.93733         6.22022        -1.34281
C         15.90669         7.69392        -1.67388
C         17.25846         5.62019        -1.09410
C         17.18125         8.45338        -1.66618
C         15.91155        10.55291        -1.42618
C         15.91027        12.03264        -1.29427
C         17.18337         9.83511        -1.59555
C         17.19978        12.76542        -1.38986
C         15.92123        15.00285        -1.53701
C         15.91621        16.36551        -1.32584
C         17.17337        14.22345        -1.76825
C         17.18062        17.14431        -1.36302
C         15.94118        19.17629        -0.66158
C         17.19057        18.49375        -0.73697
C         18.51769         1.69832         0.48116
C         18.51937         3.54467        -0.76302
C         19.87470         1.51968         0.92363
C         19.72248         4.17395        -0.83401
C         18.44071         6.27768        -1.32244
C         18.42921         7.64957        -1.98751
C         19.72621         5.61206        -1.12055
C         19.72789         8.42461        -1.84908
C         18.45089        10.58695        -1.68375
C         18.45975        11.99217        -1.59607
C         19.70190         9.87335        -1.86934
C         19.68831        12.72172        -1.54115
C         18.49603        14.94041        -1.75784
C         18.48483        16.43831        -1.59006
C         19.71501        14.15888        -1.41919
C         19.74825        17.12165        -1.14111
C         18.37567        19.06766        -0.31197
C         19.64027        18.39708        -0.38916
C         20.96776         2.19382         0.39271
C         20.94938         3.35581        -0.57672
C         22.26710         1.70760         0.78560
C         22.22186         4.11522        -0.76531
C         20.90684         6.28805        -1.40668
C         20.92146         7.69314        -1.79073
C         22.18224         5.51614        -1.33841
C         22.19947         8.34572        -2.16400
C         20.92158        10.60838        -1.89533
C         20.92069        12.00913        -1.60530
C         22.19603         9.93861        -2.24667
C         22.14780        12.73297        -1.41697
C         20.90279        14.82058        -1.11498
C         20.99173        16.29860        -0.97634
C         22.13164        14.10388        -1.04591
C         22.13325        16.86592        -0.21606
C         20.74863        18.88426         0.27316
C         21.99131        18.16166         0.36181
C         23.46074         2.35869         0.54075
C         23.41517         3.80336         0.11762
C         24.72043         1.76068         0.84635
C         24.71322         4.33573        -0.43843
C         23.46917         6.26086        -1.36572
C         23.47513         7.67533        -1.81160
C         24.74470         5.61753        -0.93675
C         24.71154         8.11299        -2.18736
C         23.45622        10.72596        -2.09781
C         23.39566        12.07658        -1.65465
C         24.73779        10.23676        -2.40768
C         24.58330        12.86132        -1.69252
C         23.35845        14.83689        -0.82323
C         23.36217        16.17364        -0.19263
C         24.50568        14.23724        -1.31993
C         24.47903        16.76306         0.50437
C         23.05981        18.69215         1.09948
C         24.28057        17.99623         1.21699
C         25.93597         2.32377         0.47903
C         25.95685         3.49544        -0.47572
C         27.17658         1.72663         0.81674
C         27.22332         4.31666        -0.40203
C         25.99814         6.30330        -1.13470
C         25.91681         7.79262        -1.34250
C         27.21186         5.69039        -0.80789
C         27.23917         8.50824        -1.63710
C         25.97191        10.85444        -2.02799
C         25.84699        12.24157        -1.91860
C         27.25826        10.06175        -1.81559
C         27.49572        13.09548        -0.68080
C         26.24899        15.14695        -0.21621
C         25.79082        16.16222         0.63963
C         27.29925        14.26940         0.13160
C         26.77419        16.65441         1.56664
C         25.30930        18.54696         2.04423
C         26.53523        17.91211         2.24987
C         28.39425         2.34364         0.51181
C         28.41001         3.68967        -0.02640
C         29.64720         1.71247         0.81201
C         29.65663         4.40297        -0.11936
C         28.44218         6.46357        -0.78865
C         28.44323         7.85264        -1.05727
C         29.66331         5.78699        -0.47316
C         29.63659         8.60953        -0.83192
C         28.33649        10.69661        -0.99456
C         28.01433        11.89250        -0.25662
C         29.53224        10.03903        -0.59821
C         29.49713        12.59639         1.11714
C         28.17680        14.66973         1.20180
C         27.98732        15.97142         1.75131
C         29.37820        13.94514         1.46549
C         29.19186        16.74813         2.22763
C         27.55750        18.46066         3.08098
C         28.84858        17.90978         3.13540
C         30.83425         2.36722         0.61911
C         30.86708         3.73417         0.17835
C         32.09483         4.44061         0.05723
C         30.89770         6.49825        -0.49499
C         30.86428         7.92667        -0.61414
C         32.10777         5.78026        -0.26412
C         32.04319         8.70972        -0.41559
C         30.68704        10.71215         0.02474
C         30.70273        11.96749         0.71670
C         31.94557        10.03669        -0.09881
C         31.89131        12.69761         1.15047
C         30.54598        14.54157         2.15149
C         30.38360        15.92978         2.71424
C         31.82380        13.84856         1.87978
C         31.50844        16.76574         3.19851
C         29.90775        18.51176         3.82588
C         31.23053        17.97773         3.77122
O         28.33354        11.82098         1.11487
O         22.95220         5.52756        -2.58605
O         16.58051        12.52057        -0.06954
O         16.97833         4.37497         0.98315
O          9.72244        14.54994         1.97576
O          2.74012        17.03782         1.43800
O          6.58393        10.34391        -1.15203
O         26.97444        13.07899        -1.98536
O         12.52111        10.24388        -2.44059
O         27.57203         9.15151        -2.89982
O         10.98719        12.18267         1.30451
O         20.75236        17.08136        -2.20860
O         15.01088         7.96713        -2.80837
O         14.57860        13.42996        -2.87933
O         17.83398        17.13572        -2.68820
O         15.06351         5.42234        -2.21863
O          4.09274         3.78551        -0.76214
O          6.67475        16.92162         2.04648
O         24.85146         9.08136        -3.17535
O          7.28057        13.43991         2.12862
O         17.87776        14.49754        -3.01265
O         18.44154         2.16384        -0.85130
O         13.82672         7.34005         0.57857
O          2.98131        10.46216         2.17398
O          3.75342         7.06210         2.28087
O         21.83669         3.11041        -1.72845
O         25.64934        15.02066        -1.47172
O         12.26103        14.67560        -2.26587
O         22.13016         9.07785        -3.41312
O         30.16615        14.78512         3.59220
O         10.95470         2.76498        -1.28164
H         10.96215         3.46955        -1.96269
O          9.26493        16.97003         2.32269
H          9.76611        16.20865         2.70300
O          6.51771        15.04521        -1.06315
H          6.26134        14.17803        -1.44517
O         18.31854         7.35377        -3.41860
H         18.34946         8.20112        -3.91116
O         13.53771        20.55408        -0.32550
H         13.48122        20.34087         0.62826
O         25.54621         8.33592        -0.00867
H         26.19862         7.99810         0.64267
O         11.08117         2.88557         2.37975
H         11.19851         2.17802         3.04722
O         29.71849        17.36638         0.99676
H         29.03439        17.98162         0.65658
O         25.96225         2.86867        -1.81431
H         25.72648         3.55998        -2.46985
O         23.16132         4.57750         1.34291
H         23.85705         4.34844         1.99482
H          0.44016         1.45718         1.81403
H          0.33759         3.92234         1.63150
H          2.55248         0.21959         1.45430
H          0.22182         5.82559         0.77407
H          0.20142         8.27005         0.73436
H          0.16100        10.28284         0.42307
H          0.25891        12.68380         0.16232
H          0.43492        14.47331        -0.53924
H          0.49238        16.86032        -1.00867
H          1.74053        19.13816        -0.90038
H          4.98055         0.26881         1.04501
H          3.85054        20.34019        -0.52439
H          7.40114         0.28617         0.91249
H          6.21425        20.37634        -0.06585
H          9.87288         0.37399         1.23619
H          8.66314        20.36688        -0.13407
H         12.46280         0.48562         1.35273
H         11.05818        20.34884        -0.50289
H         14.87091         0.50429         1.27391
H         13.40380        19.62621        -2.15148
H         17.27332         1.00775         2.08528
H         15.92433        20.24666        -0.40760
H         20.06671         0.79567         1.73197
H         18.34757        20.06093         0.16135
H         22.30519         0.71218         1.25705
H         20.67328        19.84195         0.81002
H         24.71894         0.78729         1.36346
H         22.94273        19.66281         1.60324
H         27.17850         0.77783         1.37531
H         25.10861        19.50426         2.54898
H         29.63862         0.68079         1.19269
H         27.33911        19.37457         3.65490
H         31.78680         1.86363         0.83941
H         33.03869         3.91139         0.25197
H         33.07265         6.30115        -0.32289
H         33.03171         8.23254        -0.41476
H         32.86693        10.57499         0.15780
H         32.88795        12.28553         0.93907
H         32.75379        14.30528         2.24912
H         32.52107        16.34036         3.25051
H         29.72792        19.43398         4.39773
H         32.04333        18.55721         4.23312
