         324
 CSIRO Nanostructure Databank - Neutral Graphene Oxide Data Set
C          2.41490         1.66958        -2.31645
C          2.96142         2.79198        -3.04492
C          3.08028         1.13718        -1.25454
C          4.09285         3.40183        -2.60905
C          4.32372         6.42491        -4.25625
C          4.04283         7.77567        -4.13726
C          4.66543         5.66095        -3.12551
C          4.19786         8.40692        -2.89585
C          3.43045        10.67529        -3.89630
C          3.13347        11.98356        -3.67835
C          3.72663         9.81492        -2.74429
C          3.51521        12.69874        -2.47790
C          2.43420        14.81976        -3.27365
C          2.40044        16.20719        -3.31306
C          3.40246        14.12216        -2.52159
C          3.36746        17.00528        -2.61526
C          3.37662        18.43242        -2.70790
C          4.30609         1.72512        -0.76366
C          4.91318         2.94369        -1.44645
C          5.01372         1.22122         0.28401
C          5.23901         4.00125        -0.38127
C          4.93447         6.24893        -1.86615
C          4.76075         7.66783        -1.81165
C          5.25138         5.50887        -0.56705
C          5.09825         8.40232        -0.60263
C          4.01493        10.54380        -1.43254
C          4.21050        12.02422        -1.41733
C          4.61702         9.66327        -0.42278
C          5.04836        12.76494        -0.50177
C          4.53560        14.88089        -1.90945
C          4.35306        16.37053        -1.83578
C          5.05896        14.24771        -0.63787
C          5.36029        17.13331        -1.19245
C          4.38753        19.17475        -2.13875
C          5.42943        18.54595        -1.39261
C          6.16916         1.97602         0.76407
C          6.14269         3.37373         0.63367
C          7.27647         1.32090         1.34356
C          7.16916         4.13811         1.35524
C          6.01594         6.30328         0.51105
C          5.94390         7.79156         0.48037
C          7.14743         5.65841         1.29396
C          7.15257         8.58936         0.96788
C          5.95941        10.84847         0.85592
C          5.96921        12.25189         0.46748
C          7.05413        10.06936         1.13140
C          7.10129        13.01762         0.91378
C          6.13756        15.09318         0.03839
C          6.35879        16.48210        -0.40877
C          7.24011        14.39277         0.70129
C          7.47639        17.19362         0.04763
C          6.54473        19.25859        -0.88127
C          7.57740        18.60492        -0.20838
C          8.47943         2.03080         1.57276
C          8.45547         3.46682         1.59513
C          9.71006         1.35534         1.72663
C          9.62433         4.21363         1.79645
C          8.40525         6.37820         1.55809
C          8.39893         7.86958         1.47344
C          9.58949         5.67566         1.84023
C          9.48447         8.59113         2.27416
C          8.20045        10.80960         1.69136
C          8.31815        12.25124         1.30359
C          9.31781        10.11284         2.38398
C          9.55948        12.99190         1.63845
C          8.41194        15.15320         1.07221
C          8.49864        16.51338         0.80505
C          9.43418        14.47390         1.97139
C          9.63146        17.31018         1.41972
C          8.74761        19.33484         0.24824
C          9.77169        18.75144         0.92729
C         10.90722         2.07658         1.81916
C         10.87520         3.51421         1.88455
C         12.16255         1.40418         1.73842
C         12.09593         4.22176         1.96421
C         10.83616         6.37165         2.03424
C         10.81412         7.81955         2.41509
C         12.05803         5.66670         2.01751
C         12.14961         8.49861         2.40958
C         10.46419        10.99356         2.73677
C         10.66848        12.26255         2.31767
C         12.35510         9.83539         2.74744
C         12.03729        12.84426         2.09296
C         10.81665        15.13905         2.02337
C         10.90178        16.47225         1.41194
C         12.10053        14.34012         2.12719
C         12.12561        16.91597         1.01419
C         10.93769        19.54512         1.39446
C         12.18974        19.10588         1.08450
C         13.37921         2.06865         1.84697
C         13.34388         3.51348         2.05551
C         14.59196         1.33111         1.49542
C         14.52480         4.27861         2.22152
C         13.30761         6.38202         1.97344
C         13.32287         7.80565         2.01086
C         14.53758         5.69587         2.01278
C         14.55607         8.50899         1.85485
C         13.44710        10.61462         2.30223
C         13.34094        12.07807         2.05131
C         14.59850         9.93416         1.88066
C         14.62866        12.81743         1.90716
C         13.38945        14.97420         1.75960
C         13.38573        16.32537         1.39251
C         14.61036        14.22678         1.74775
C         14.60012        17.11335         1.40742
C         13.52222        19.44116         1.54220
C         14.60616        18.58720         1.55268
C         15.86297         1.63991         1.95605
C         15.76758         3.74275         2.65623
C         17.09455         1.29004         1.31287
C         16.94724         4.43378         2.59342
C         15.78058         6.40275         1.85064
C         15.75674         7.78402         1.64127
C         17.06541         5.73365         1.99107
C         16.96989         8.49199         1.21576
C         15.82888        10.65582         1.61554
C         15.82310        12.09254         1.65840
C         17.00979         9.95779         1.32504
C         17.02730        12.78251         1.28605
C         15.82501        14.93898         1.46548
C         15.78978        16.37722         1.46422
C         17.02846        14.20957         1.22572
C         17.10055        17.06031         1.49234
C         15.90321        19.29943         1.96094
C         17.19083        18.52908         1.69831
C         18.33094         1.98034         1.23193
C         18.69643         3.27192         1.84184
C         19.31330         1.48734         0.33641
C         19.55087         4.17265         1.29213
C         18.27869         6.33243         1.65656
C         18.29212         7.71842         1.15543
C         19.61578         5.60977         1.82955
C         19.54935         8.51383         1.14009
C         18.23936        10.63980         1.05836
C         18.20499        12.04480         0.95996
C         19.49746         9.89970         0.95473
C         19.37317        12.72951         0.29402
C         18.24450        14.89322         0.83176
C         18.17962        16.36632         0.73624
C         19.40725        14.23105         0.48873
C         19.39439        17.14215         0.35825
C         18.39577        19.24760         1.23237
C         19.49408        18.58805         0.70880
C         20.46461         2.23651         0.00208
C         20.46503         3.74388         0.17489
C         21.57155         1.63457        -0.58483
C         21.85271         4.32429         0.39476
C         20.77003         6.37769         1.21587
C         20.79000         7.77412         1.12644
C         21.94296         5.62188         0.87283
C         22.05083         8.48220         0.87806
C         20.73627        10.66013         0.78357
C         20.67966        12.03140         0.58230
C         22.01429         9.94053         0.73668
C         21.89157        12.84334         0.43803
C         20.61293        14.96758         0.11660
C         20.60848        16.36896         0.06445
C         21.84491        14.24499        -0.05050
C         21.77638        17.13408        -0.36250
C         20.73133        19.24860         0.46890
C         21.87124        18.57267        -0.01043
C         22.83350         2.30421        -0.67946
C         23.00241         3.61471        -0.09867
C         23.93656         1.64730        -1.23410
C         24.29469         4.18926        -0.03748
C         23.26145         6.28923         1.14958
C         23.23996         7.77344         0.80045
C         24.47938         5.51442         0.60869
C         24.54643         8.45668         0.66693
C         23.17690        10.62443         0.42497
C         23.19560        12.09367         0.33168
C         24.49664         9.96221         0.39768
C         24.26754        12.73891        -0.48094
C         23.05882        14.90033        -0.37523
C         23.06847        16.35887        -0.62112
C         24.28832        14.21758        -0.52946
C         24.33855        17.08180        -0.51947
C         23.11080        19.21259        -0.12668
C         24.33469        18.50824        -0.37052
C         25.21834         2.24785        -1.25481
C         25.40126         3.53734        -0.64191
C         26.30092         1.59720        -1.89287
C         26.70375         4.15138        -0.71171
C         25.74903         6.25924         0.25525
C         25.74532         7.73025         0.19842
C         26.85552         5.54184        -0.40150
C         26.84470         8.40749        -0.32098
C         25.62878        10.56688        -0.32656
C         25.47456        11.94959        -0.85972
C         26.76910         9.83594        -0.56940
C         26.69310        12.70610        -1.38363
C         25.52521        14.90370        -0.78723
C         25.55078        16.36753        -0.64331
C         26.69938        14.18956        -1.05474
C         26.76776        17.08014        -0.65543
C         25.55922        19.19789        -0.35828
C         26.79745        18.51325        -0.50135
C         27.58064         2.17354        -1.91938
C         27.77900         3.43673        -1.29176
C         28.69120         1.52868        -2.57352
C         29.13203         3.98743        -1.24352
C         28.03765         6.25047        -0.65594
C         28.06094         7.68093        -0.68444
C         29.27782         5.51252        -0.90659
C         29.25826         8.33852        -1.04886
C         27.94679        10.52110        -1.16567
C         27.97485        12.00878        -0.96770
C         29.24330         9.79896        -1.30015
C         29.28020        12.72414        -1.05009
C         27.96482        14.88119        -1.32542
C         27.99277        16.39839        -1.07395
C         29.26888        14.18471        -1.26815
C         29.30256        17.01046        -0.76630
C         28.01027        19.22382        -0.60025
C         29.30039        18.54657        -0.56715
C         29.92945         2.11761        -2.65625
C         30.19694         3.38044        -2.04223
C         31.40499         4.07174        -2.19683
C         30.47832         6.20371        -1.37698
C         30.46481         7.64035        -1.35037
C         31.54468         5.43036        -1.86402
C         31.65426         8.39896        -1.59510
C         30.52129        10.55943        -1.33699
C         30.53073        11.96083        -1.27882
C         31.69737         9.77469        -1.52549
C         31.72012        12.74271        -1.43683
C         30.47240        14.87461        -1.36230
C         30.52549        16.33667        -1.24876
C         31.69779        14.11346        -1.44056
C         31.66739        17.09062        -1.39845
C         30.54168        19.22957        -0.93825
C         31.65666        18.52116        -1.27521
O          9.87288         8.00705         3.53763
O          4.70956        10.23220         0.84106
O         22.84802        12.74916         1.58271
O         11.47861        14.94217         3.32666
O          4.74758         4.31019        -3.44190
O         28.57925        12.41028         0.28008
O          5.16258         7.04961         1.44896
O          6.65924         4.94523         2.48149
O          9.35901        12.54459         0.26666
O          8.15112        10.55480         3.16640
O         12.53342        12.33286         0.80418
O          8.32798         8.34018         0.07397
O         25.55526         5.61340         1.59565
O         15.87815         2.42813         3.12725
O         17.49307         7.95910        -0.05397
O         27.90998        15.86296        -2.42966
O         22.22026        16.81372        -1.72696
O         24.34908        12.07003        -1.81073
O          2.67146        10.03337        -1.73324
O          4.77666        14.92879         0.60474
O          4.10971         4.81274         0.04489
O         18.05677         3.69026         3.03244
O         12.20598        18.02426         0.17048
O         29.41581        17.57972         0.55674
O         28.36222        10.08953        -2.49068
O         29.54128         4.46286         0.06804
O         24.85413         9.42987         1.72145
O         18.31321        16.87181        -0.63770
O         11.42042        10.44410         3.57930
O         17.50329        17.57356         2.80777
O         19.95612         4.30311        -1.07624
H         20.51045         3.95389        -1.80535
O         19.16067        12.55048        -1.15654
H         18.36615        13.06806        -1.40838
O         23.36056         6.28123         2.60041
H         24.32266         6.30036         2.82004
O          8.89123        14.56745         3.31677
H          9.65100        14.46780         3.93847
O          6.20605         2.55887        -2.00131
H          6.04790         1.90567        -2.71431
O          9.29788        17.45893         2.83606
H          9.02316        16.57488         3.18174
O         19.93566         5.58083         3.24550
H         19.34912         4.90451         3.66055
O         26.67464        12.63236        -2.82807
H         25.72889        12.67160        -3.10273
O         15.97029        20.57310         1.30834
H         15.95698        20.42895         0.33974
O          5.65621        14.68157        -2.86658
H          5.38057        15.06545        -3.72648
H          1.47316         1.22470        -2.66474
H          2.46831         3.13398        -3.96416
H          2.68285         0.25772        -0.72803
H          4.18130         5.90611        -5.21250
H          3.66508         8.32651        -5.00773
H          3.33348        10.25216        -4.90506
H          2.78961        12.59166        -4.52770
H          1.64540        14.25428        -3.79105
H          1.61273        16.71501        -3.88762
H          2.58766        18.93020        -3.29029
H          4.71458         0.29771         0.80051
H          4.41053        20.26628        -2.27027
H          7.27203         0.22488         1.42939
H          6.60627        20.34515        -1.04298
H          9.73478         0.25683         1.68271
H          8.81040        20.40097        -0.01912
H         12.15644         0.31846         1.56055
H         10.76931        20.43940         2.01334
H         14.47818         0.54242         0.73431
H         13.71146        20.48035         1.85894
H         16.99809         0.46656         0.58383
H         15.84835        19.51539         3.06070
H         19.21593         0.46265        -0.05533
H         18.44542        20.33258         1.40831
H         21.53131         0.56578        -0.84620
H         20.81857        20.31417         0.72962
H         23.80622         0.64656        -1.67135
H         23.17008        20.29185         0.07984
H         26.13132         0.62308        -2.37463
H         25.56348        20.28991        -0.22894
H         28.51707         0.55239        -3.04847
H         27.98724        20.31944        -0.69407
H         30.73972         1.61819        -3.20755
H         32.23932         3.57058        -2.70944
H         32.49157         5.92157        -2.12844
H         32.59377         7.85993        -1.77790
H         32.67002        10.27314        -1.63672
H         32.68756        12.23397        -1.54709
H         32.65030        14.65305        -1.52748
H         32.60940        16.61868        -1.70987
H         30.54194        20.32815        -0.99154
H         32.58038        19.06067        -1.52891
