         480
 CSIRO Nanostructure Databank - Neutral Graphene Oxide Data Set
C         37.54824        50.16322        -0.03621
C         36.42730        50.81512        -0.44061
C         37.70356        52.50719        -1.65901
C         36.50854        51.98541        -1.27515
C         40.10855        48.53121         0.33853
C         40.10332        50.03134         0.14184
C         38.86298        50.51136        -0.59067
C         40.27763        52.49322        -1.45005
C         38.96203        51.78530        -1.41843
C         40.34141        53.83121        -1.91623
C         42.43501        48.77674         1.03484
C         41.23242        47.94135         0.76385
C         42.60330        49.99892         0.23499
C         41.42085        50.41392        -0.60854
C         42.69627        52.57589        -0.99212
C         41.44688        51.87596        -0.99068
C         42.74811        53.89767        -1.54184
C         41.54219        54.50245        -1.97998
C         44.80765        46.12412         2.41667
C         43.67876        46.77236         2.08844
C         44.94965        48.89258         1.47159
C         43.66691        48.20257         1.71926
C         44.98464        50.12068         0.85455
C         43.79833        50.69721         0.23345
C         45.13256        52.65541        -0.57098
C         43.88063        51.98031        -0.45376
C         45.19478        53.93376        -1.22856
C         44.00782        54.57218        -1.67001
C         45.30551        56.50772        -2.41694
C         44.10336        55.86460        -2.27625
C         47.35131        44.57069         2.47588
C         47.37047        46.02945         2.66825
C         46.10261        46.83061         2.53879
C         47.50309        48.76040         1.55022
C         46.18840        48.25894         2.00683
C         47.48342        49.93158         0.58690
C         46.30025        50.87635         0.85237
C         47.58536        52.64424        -0.37934
C         46.33476        52.06512        -0.08591
C         47.63875        53.88130        -1.07384
C         46.46461        54.56417        -1.43501
C         47.74681        56.61865        -2.02008
C         46.52697        55.90386        -1.99250
C         47.82118        58.04922        -2.29032
C         49.79476        44.48785         2.22521
C         48.49487        43.86013         2.31725
C         49.89258        45.88682         2.15793
C         48.69998        46.73060         2.40228
C         49.96437        48.65918         1.42271
C         48.67916        48.09284         1.80792
C         50.00153        50.00024         0.88836
C         48.80080        50.67127         0.52829
C         50.09597        52.60441        -0.26336
C         48.82749        51.96811        -0.00365
C         50.15930        53.85382        -0.90580
C         48.94299        54.45731        -1.53480
C         50.13044        56.69816        -1.49727
C         48.94411        55.98301        -1.55487
C         50.27282        57.81999        -2.50402
C         49.01447        58.66186        -2.46752
C         52.14933        41.58220         1.78437
C         50.98085        42.29648         1.95667
C         52.25341        44.36681         2.25189
C         50.99726        43.71115         2.15164
C         52.36515        45.75831         2.11732
C         51.14841        46.52111         1.93400
C         52.44738        48.52165         1.28049
C         51.14536        47.90691         1.59130
C         52.49189        50.03487         1.26891
C         51.25723        50.64921         0.64615
C         52.63470        52.43626        -0.49324
C         51.31068        51.88598         0.02265
C         52.63720        53.97419        -0.44712
C         51.47511        54.40271        -1.26185
C         52.54874        56.79630        -0.83985
C         51.24010        56.29593        -0.62930
C         52.76275        57.81668        -1.87956
C         51.59503        58.54338        -2.41418
C         52.98700        60.50130        -2.91858
C         51.76660        59.77086        -2.99929
C         54.61614        40.15772         1.14079
C         54.60229        41.39876         1.83153
C         53.42666        42.14872         2.04010
C         54.76427        44.24593         2.86633
C         53.39815        43.51082         2.74199
C         54.84749        45.73705         2.58677
C         53.67439        46.39474         2.17139
C         54.94506        48.60236         1.77722
C         53.70592        47.78465         1.64434
C         55.01074        49.91068         1.09009
C         53.79914        50.59441         0.75740
C         55.09329        52.62221         0.01343
C         53.83143        51.84002         0.17510
C         54.84540        54.03253         0.66285
C         53.70086        54.71185        -0.06733
C         55.03505        56.87040        -0.24608
C         53.66969        56.25025         0.00615
C         55.14913        58.16339        -0.87948
C         54.09688        58.60811        -1.81155
C         55.28308        60.81240        -2.00134
C         54.09875        60.00949        -2.26002
C         55.36663        62.14838        -2.45215
C         57.02065        40.25051         0.60958
C         55.76758        39.60460         0.58830
C         57.13738        41.45519         1.45728
C         55.91258        41.96539         2.19731
C         57.37476        43.88559         2.82564
C         55.99753        43.35292         2.75871
C         57.37152        46.00129         2.98536
C         56.13115        46.43611         2.51533
C         57.47023        48.36580         1.40249
C         56.19973        47.86702         2.07473
C         57.49257        49.86880         1.24393
C         56.26019        50.54775         0.94787
C         57.47719        52.64617         0.74476
C         56.29993        51.93477         0.59847
C         57.46099        54.12306         0.78161
C         56.15103        54.84925         0.71646
C         57.46155        56.91585         0.19042
C         56.18825        56.24667         0.23076
C         57.38325        58.42748         0.17648
C         56.28912        58.93836        -0.72514
C         57.58896        61.02325        -1.13118
C         56.39341        60.25797        -1.29745
C         57.67169        62.33674        -1.66970
C         56.52377        62.88726        -2.29027
C         59.36159        37.73014        -0.83092
C         58.20250        38.35990        -0.45862
C         59.45355        40.41863         0.01402
C         58.20869        39.70177         0.03106
C         59.47456        41.83777         0.45798
C         58.28056        42.38128         1.17043
C         59.79018        44.19872         2.24447
C         58.45109        43.54883         2.06592
C         59.88381        45.68456         2.68750
C         58.65696        46.53502         2.60515
C         59.99952        48.41484         1.73080
C         58.73720        47.77021         1.97792
C         59.98422        49.81183         1.26295
C         58.69789        50.54995         1.17900
C         59.89570        52.74359         1.09410
C         58.71205        51.97741         0.99186
C         59.92984        54.15431         0.89228
C         58.73268        54.85002         0.59546
C         59.98817        56.98987         0.13235
C         58.68242        56.24997         0.36711
C         59.90098        58.44923         0.60557
C         58.70489        59.12075        -0.03038
C         59.97582        61.20815        -0.26072
C         58.74969        60.40106        -0.50086
C         60.03627        62.63956        -0.82538
C         58.91104        63.09878        -1.64751
C         60.30861        64.96745        -2.37317
C         59.10210        64.24025        -2.41799
C         61.90849        36.35498        -1.28559
C         61.81216        37.75780        -1.20040
C         60.61008        38.41837        -0.83602
C         61.88012        40.55178        -0.55470
C         60.62842        39.80691        -0.45488
C         61.88515        41.97894        -0.14998
C         60.78077        42.51276         0.69368
C         62.32858        44.18517         1.79026
C         60.94186        43.60633         1.49332
C         62.33484        45.69678         1.93222
C         61.22665        46.42370         2.65332
C         62.46580        48.54350         2.09803
C         61.19994        47.82902         2.09803
C         62.47758        49.95019         1.98093
C         61.24859        50.60721         1.49155
C         62.33299        52.85926         1.84388
C         61.07979        52.07353         1.65157
C         62.36958        54.24610         1.36824
C         61.19243        54.88498         1.00575
C         62.34602        57.06302         0.97287
C         61.20721        56.31222         0.73765
C         62.39302        58.45327         0.61983
C         61.21968        59.14806         0.34224
C         62.46456        61.26469         0.03060
C         61.24305        60.52974         0.01062
C         62.50216        62.64359        -0.39626
C         61.35691        63.26548        -0.97726
C         62.69448        65.27381        -1.66426
C         61.42746        64.49855        -1.68056
C         62.69157        66.74316        -1.83776
C         64.34331        36.44289        -1.61277
C         63.11941        35.71872        -1.50953
C         64.30922        37.84833        -1.59619
C         62.98900        38.57980        -1.65176
C         64.28262        40.69938        -1.17131
C         63.03445        39.96247        -1.04268
C         64.35433        42.01068        -0.74566
C         63.18577        42.72122        -0.18847
C         64.63685        44.44916         0.82182
C         63.41977        43.82233         0.78311
C         64.89749        45.60482         1.73508
C         63.63758        46.35847         2.13536
C         64.93303        48.55232         2.17424
C         63.70401        47.83865         2.22667
C         64.93057        49.99039         2.32748
C         63.67099        50.71224         2.22426
C         64.58855        53.05392         2.56045
C         63.58518        52.13517         2.12931
C         64.79594        54.31128         2.04265
C         63.70219        54.96798         1.22534
C         64.84135        57.18912         1.51984
C         63.53709        56.43585         1.67238
C         64.89411        58.47454         1.05525
C         63.72415        59.09951         0.32930
C         64.88069        61.33671         0.53503
C         63.68107        60.61210         0.38080
C         64.89459        62.74896         0.21827
C         63.74162        63.33350        -0.32881
C         64.88493        65.60191        -0.32848
C         63.85738        64.68196        -0.94090
C         65.01084        66.93010        -1.03027
C         63.79915        67.48984        -1.57777
C         66.89937        33.66124        -1.73970
C         65.69736        34.32391        -1.57134
C         66.81073        36.44339        -1.94965
C         65.61886        35.73050        -1.69874
C         66.73184        37.90418        -2.12307
C         65.49650        38.61614        -1.74712
C         66.74009        40.75799        -1.69327
C         65.49785        40.02010        -1.63433
C         66.68808        42.27176        -1.81332
C         65.51746        42.86356        -1.02652
C         66.99828        44.73841        -0.17741
C         65.62706        44.15037        -0.25462
C         67.27647        45.84050         0.78549
C         66.25707        46.33727         1.80154
C         67.37300        48.53150         1.68271
C         66.17245        47.85775         1.84341
C         67.45195        49.92735         2.13716
C         66.20368        50.66867         2.38224
C         67.49125        52.85021         2.33145
C         66.40833        52.00018         2.76447
C         67.38482        54.29507         2.27689
C         66.07274        55.03010         2.34777
C         67.35327        57.20514         1.81054
C         66.06511        56.52616         2.04767
C         67.34300        58.59074         1.50402
C         66.11692        59.25690         1.14731
C         67.31375        61.42652         1.16036
C         66.08792        60.64314         0.91467
C         67.33171        62.90759         0.83338
C         66.11678        63.53351         0.28577
C         67.41613        65.61173        -0.10066
C         66.18029        64.86896        -0.08628
C         67.42653        66.94709        -0.52660
C         66.22221        67.62141        -0.96370
C         67.41945        69.77214        -1.18189
C         66.28578        69.04155        -1.26864
C         69.39818        32.23498        -2.27607
C         69.35568        33.64705        -2.20160
C         68.10128        34.35864        -2.00100
C         69.30698        36.52744        -2.16175
C         68.06304        35.77887        -2.06548
C         69.31442        37.94628        -2.06052
C         68.03601        38.68995        -2.11822
C         69.22508        40.84554        -1.55039
C         67.96067        40.11000        -1.75556
C         69.19114        42.32832        -1.57512
C         68.00905        42.98535        -1.56558
C         69.28423        45.11131        -1.16235
C         67.91861        44.50292        -1.38333
C         69.54063        46.09347        -0.25408
C         68.48011        46.66369         0.55823
C         69.81097        48.69208         0.92852
C         68.56755        47.92891         1.10505
C         69.87850        50.06323         1.27426
C         68.73471        50.72087         1.94088
C         69.85484        52.93450         1.66318
C         68.67217        52.19513         1.92655
C         69.82461        54.35217         1.83228
C         68.57012        55.03544         2.03833
C         69.80911        57.19844         1.83294
C         68.56384        56.48282         1.91389
C         69.81272        58.62204         1.71217
C         68.58290        59.31454         1.50242
C         69.81610        61.42385         1.26727
C         68.59775        60.71143         1.28585
C         69.85467        62.81879         0.78395
C         68.61947        63.58977         0.60106
C         69.90453        65.68378         0.31823
C         68.65920        64.92378         0.22575
C         69.90737        67.07222         0.02877
C         68.72199        67.65566        -0.63756
C         69.90375        69.94887        -0.54848
C         68.73407        69.13416        -0.97395
C         69.90344        71.34196        -0.73487
C         71.78510        32.28391        -2.64012
C         70.59208        31.56188        -2.49010
C         71.76896        33.66942        -2.56921
C         70.56547        34.37799        -2.34730
C         71.74567        36.57534        -2.24162
C         70.54551        35.83240        -2.25487
C         71.73947        37.95601        -2.11265
C         70.52533        38.66058        -2.02328
C         71.66440        40.96032        -2.24261
C         70.53036        40.13075        -1.77056
C         71.64857        42.29651        -2.13419
C         70.53199        43.04676        -1.44524
C         71.63115        45.28899        -2.01428
C         70.35825        44.48976        -2.01238
C         71.87362        46.27231        -1.14376
C         70.95074        46.58315         0.01574
C         72.15160        48.79157         0.28853
C         70.96422        48.05475         0.40502
C         72.19807        50.14970         0.58027
C         71.05624        50.81805         1.06362
C         72.26122        52.99474         1.30722
C         71.07207        52.25100         1.35029
C         72.25295        54.36637         1.52933
C         71.05389        55.06956         1.76602
C         72.25225        57.25332         1.98249
C         71.04940        56.50983         1.88485
C         72.24711        58.63177         1.96105
C         71.03689        59.35289         1.77713
C         72.20959        61.57484         1.84122
C         71.03145        60.77613         1.59100
C         72.25223        62.91742         1.62873
C         71.16972        63.60302         0.91368
C         72.20831        65.88036         1.08382
C         71.08878        65.07687         0.81215
C         72.18375        67.24607         0.84114
C         71.04639        67.87051         0.28431
C         72.13373        70.12695         0.39553
C         71.03543        69.31969         0.02905
C         72.12054        71.50392         0.19898
C         71.00078        72.11744        -0.36900
O         70.06100        40.40993        -0.39143
O         62.16368        42.94604        -1.23584
O         67.31527        38.39661        -3.37443
O         53.21796        47.85344         0.24208
O         55.58663        48.70621         3.10462
O         67.64077        44.42569         1.09234
O         65.45176        52.61429         3.56806
O         56.89313        41.10409         2.86244
O         65.94441        56.01528         3.44394
O         46.07728        47.97061         3.44212
O         59.99575        44.59509         3.63728
O         56.78092        54.65154         2.02826
O         69.03712        68.13020        -2.00333
O         68.41606        50.11146         3.24408
O         60.88094        50.13267         0.14287
O         52.83307        52.14386        -1.87757
O         63.82099        64.62757        -2.39811
O         58.46318        42.66608        -0.25396
O         70.79041        62.95622        -0.34373
O         59.70142        62.36554         0.58771
O         57.47524        44.87614         3.80633
O         61.38309        52.59566         2.98186
O         38.96856        50.44036        -2.04696
O         64.42056        45.51927         3.10300
O         55.38270        43.66130         4.05664
O         42.68258        49.00039         2.47572
O         67.15370        62.44843         2.23111
O         48.19822        46.52564         3.76270
O         53.83618        57.60676        -2.84998
O         65.06748        44.15829        -1.60116
O         66.84205        46.00483         3.08582
H         67.19505        45.09042         3.01927
O         56.98965        58.79168         1.54946
H         57.73949        58.51136         2.12971
O         67.36595        45.10841        -2.57186
H         66.57794        44.57285        -2.84319
O         41.49455        49.62859        -1.82674
H         40.65962        49.80795        -2.32894
O         46.50104        51.40356         2.19153
H         45.67947        51.85524         2.47531
O         47.25515        49.36067        -0.73759
H         48.09828        48.97558        -1.05664
O         64.06732        54.99541        -0.18151
H         64.10315        54.07424        -0.51246
O         60.18541        57.04815        -1.31036
H         60.28186        56.13117        -1.64248
O         52.43526        50.40515         2.68247
H         52.47511        51.38256         2.75013
O         63.21895        56.45094         3.08266
H         64.05005        56.24431         3.57854
O         49.03224        54.17119        -2.98228
H         49.98392        54.27532        -3.23406
O         50.86461        55.92759         0.65251
H         51.65215        56.05212         1.24740
O         53.34361        56.51117         1.42177
H         53.84634        55.85832         1.96641
O         66.39037        42.53026        -3.22148
H         65.53961        42.09072        -3.43628
O         52.96642        43.19246         4.10093
H         53.78368        43.00116         4.62099
O         61.64622        46.55236         4.04194
H         61.49960        45.67083         4.45681
O         70.86462        43.15411        -0.03915
H         70.79683        42.24193         0.33114
O         50.30165        57.18648        -3.82934
H         49.52316        56.58958        -3.88615
O         40.08442        50.68414         1.42941
H         40.77880        50.28202         1.99583
O         57.38958        47.80888         0.04823
H         58.12993        48.17665        -0.48008
O         59.68621        58.41899         2.04588
H         59.91623        59.30094         2.40750
O         62.75715        38.81643        -3.09740
H         61.89883        39.28498        -3.18105
O         62.67354        43.57165         3.07066
H         63.41358        44.10986         3.45446
O         71.44062        45.82578         1.15795
H         71.32720        44.87025         0.93476
O         64.35094        65.92229         1.00547
H         65.04089        66.41682         1.49591
O         51.78627        54.36316        -2.58830
H         52.35602        53.48709        -2.64505
O         55.35706        52.84530        -1.39122
H         54.52952        52.54336        -1.87826
O         54.39318        53.86441         2.02516
H         55.20972        53.89708         2.58804
O         63.99308        58.80186        -1.09497
H         63.19983        59.06801        -1.60729
O         69.91910        44.35624        -3.37954
H         68.99428        44.69599        -3.45018
H         37.49512        49.38561         0.73963
H         35.44484        50.52313        -0.04354
H         37.72470        53.48389        -2.16189
H         35.57960        52.52668        -1.50432
H         39.20167        47.94340         0.13209
H         39.43290        54.33944        -2.26373
H         41.26646        46.85589         0.93486
H         41.54778        55.52390        -2.38041
H         44.75843        45.05599         2.67189
H         42.72250        46.23133         2.10400
H         45.32640        57.50171        -2.88366
H         43.19749        56.36804        -2.63756
H         46.38834        44.04148         2.45825
H         46.89374        58.63837        -2.33575
H         48.42487        42.76798         2.22539
H         49.05960        59.73858        -2.68679
H         52.07344        40.52979         1.47836
H         50.02443        41.77503         1.81881
H         52.99020        61.51893        -3.33112
H         50.91265        60.26261        -3.48641
H         53.66837        39.63419         0.95695
H         54.51104        62.61697        -2.95542
H         55.65235        38.66409         0.03282
H         56.54240        63.92101        -2.65914
H         59.31518        36.68622        -1.16766
H         57.26281        37.79396        -0.48772
H         60.37885        65.89828        -2.95204
H         58.29893        64.61752        -3.06464
H         61.02231        35.73275        -1.09735
H         61.79393        67.23112        -2.24368
H         63.12867        34.62206        -1.54657
H         63.76895        68.56138        -1.82302
H         66.90586        32.56736        -1.64896
H         64.79985        33.73294        -1.34808
H         67.36224        70.86248        -1.30615
H         65.34391        69.56819        -1.47432
H         68.47581        31.64769        -2.17708
H         69.03750        71.83569        -1.19585
H         72.73100        31.75399        -2.81758
H         70.60118        30.46486        -2.54941
H         72.71454        34.21179        -2.70062
H         72.71450        36.06320        -2.30100
H         72.69419        38.49755        -2.06940
H         72.50607        40.45852        -2.74261
H         72.50290        42.88118        -2.50605
H         72.34715        45.07969        -2.82373
H         72.82519        46.81849        -1.21784
H         73.07397        48.30338        -0.05143
H         73.14112        50.69088         0.42924
H         73.22045        52.50132         1.10422
H         73.20641        54.90787         1.47899
H         73.21318        56.73207         2.08313
H         73.20291        59.16714         2.03186
H         73.07226        61.09569         2.32470
H         73.11773        63.49462         1.98311
H         73.13159        65.42551         1.46731
H         73.09052        67.82522         1.05553
H         73.02694        69.67738         0.84814
H         72.99196        72.10607         0.49057
H         70.98615        73.20336        -0.53381
