         210
 CSIRO Nanostructure Databank - Neutral Graphene Oxide Data Set
C         30.45697        32.01906         0.61321
C         30.39689        33.04113        -0.09102
C         30.35615        36.12887        -0.65224
C         30.41553        37.32766        -0.36391
C         30.49995        40.26402         0.60307
C         30.43388        41.40984         1.12998
C         32.86853        29.29755         1.33265
C         31.74749        29.88636         1.33838
C         32.83077        31.79804         0.35164
C         31.58528        31.16903         0.80897
C         32.83903        33.11374        -0.22520
C         31.54590        33.79151        -0.59212
C         32.79120        36.04593        -0.72265
C         31.52003        35.26598        -0.86883
C         32.81348        37.41708        -0.56683
C         31.52582        38.28141        -0.67961
C         32.81163        40.19781         0.37116
C         31.58883        39.51573         0.15681
C         32.82931        41.54810         0.86802
C         31.58794        42.21079         1.25277
C         32.85682        44.16698         1.54503
C         31.76151        43.56977         1.63341
C         35.50445        27.57541         1.24303
C         35.33396        28.94085         0.88450
C         34.13339        29.70581         0.90805
C         35.27069        31.70548        -0.02439
C         34.07322        31.08160         0.43248
C         35.27841        33.05709        -0.43755
C         34.04669        33.77986        -0.52426
C         35.33051        36.00689        -0.96592
C         34.03483        35.23769        -0.90202
C         35.36959        37.53859        -0.83906
C         34.04228        38.16922        -0.39772
C         35.31391        40.21135         0.21658
C         34.05115        39.49411         0.04061
C         35.30664        41.62021         0.50825
C         34.07815        42.27798         0.85373
C         35.32918        44.41380         1.04376
C         34.13102        43.67536         1.16899
C         35.50116        45.81588         1.20068
C         37.83780        27.35718         0.67265
C         36.56794        26.92146         1.13995
C         37.77224        28.77644         0.34312
C         36.55769        29.50492         0.40435
C         37.85329        31.61504        -0.23228
C         36.50292        30.88245        -0.12714
C         37.83597        33.07240        -0.26374
C         36.58546        33.73167        -0.69207
C         37.85385        35.95713        -0.36134
C         36.63102        35.24938        -0.81535
C         37.81939        37.34948        -0.14147
C         36.48337        38.01213         0.10347
C         37.77690        40.22472         0.17762
C         36.53341        39.52635         0.12930
C         37.77306        41.65431         0.28919
C         36.53619        42.34331         0.49941
C         37.78826        44.50426         0.56788
C         36.56052        43.76432         0.70882
C         37.83297        45.93571         0.69425
C         36.55558        46.46260         1.02631
C         40.39473        24.57852         0.59455
C         39.36338        25.29170         0.74846
C         40.21908        27.28070        -0.22206
C         39.01737        26.62282         0.50561
C         40.23831        28.73982         0.12316
C         39.04691        29.46271         0.17615
C         40.26164        31.64406         0.28661
C         39.07513        30.90116         0.14330
C         40.24023        33.05588         0.15122
C         39.03614        33.77791        -0.14164
C         40.28436        35.95062        -0.02304
C         39.06267        35.23330        -0.19671
C         40.25547        37.36502        -0.01737
C         39.02704        38.06964         0.00794
C         40.23990        40.24793         0.12600
C         39.01929        39.52337         0.10282
C         40.23179        41.67623         0.15850
C         38.99962        42.38088         0.24039
C         40.23423        44.53337         0.13660
C         39.01413        43.81649         0.30953
C         40.25881        45.96712         0.16915
C         39.03038        46.64863         0.47338
C         40.24747        48.72324         0.23576
C         39.21992        48.05419         0.48202
C         42.92263        24.63809        -0.09115
C         41.62914        25.16966         0.15498
C         42.74821        27.34453        -0.38764
C         41.57195        26.58386        -0.06169
C         42.73847        28.77017        -0.22739
C         41.52444        29.41159         0.31482
C         42.81667        31.62950         0.17212
C         41.54731        30.92107         0.46272
C         42.80312        33.04093         0.52533
C         41.45297        33.81061         0.48014
C         42.76237        35.90406         0.32247
C         41.52857        35.25023         0.22445
C         42.82038        37.35957         0.08600
C         41.52327        38.11066        -0.04866
C         42.70065        40.26027         0.33581
C         41.50507        39.57125         0.17288
C         42.70533        41.69032         0.19583
C         41.46657        42.38842         0.08814
C         42.67996        44.49856        -0.28979
C         41.46655        43.81300        -0.02805
C         42.67273        45.94284        -0.41582
C         41.48004        46.68701        -0.10444
C         42.74612        48.70856        -0.45418
C         41.50303        48.14713        -0.10590
C         43.91696        25.30223        -0.47719
C         45.05913        27.47992        -1.25263
C         44.00499        26.69262        -0.72483
C         44.84290        28.87504        -1.32703
C         43.84444        29.56165        -0.60342
C         45.25273        31.74607        -0.20379
C         43.97147        31.00501        -0.29244
C         45.24351        33.07481         0.28324
C         44.03867        33.80231         0.42059
C         45.25534        35.94482         0.57434
C         44.00730        35.21341         0.49408
C         45.21801        37.40118         0.64567
C         44.04753        38.08584         0.48355
C         45.23167        40.30512         0.74636
C         43.92082        39.53546         0.89948
C         45.21504        41.74877         0.31106
C         43.92045        42.40816         0.04423
C         45.16812        44.39674        -0.68897
C         43.91248        43.76869        -0.32493
C         45.06788        45.82135        -1.28799
C         43.88266        46.58750        -0.79469
C         43.72669        47.97042        -0.76338
C         47.49395        27.84805        -1.54291
C         46.43610        27.19310        -1.55791
C         47.87338        29.18059        -1.17990
C         46.74481        30.03321        -1.25243
C         47.79654        31.78589         0.02392
C         46.56779        31.17825        -0.46459
C         47.75636        33.06889         0.55437
C         46.45486        33.74224         0.89395
C         47.69951        35.98887         0.86715
C         46.46296        35.25972         0.73658
C         47.73480        37.37778         0.82139
C         46.46348        38.13951         1.08572
C         47.68353        40.22299         0.30765
C         46.49148        39.56602         0.60051
C         47.66879        41.62623        -0.11322
C         46.46412        42.33773        -0.21274
C         47.65374        44.33811        -1.22771
C         46.36641        43.69835        -0.68919
C         47.49414        45.81724        -0.99832
C         46.42114        46.41684        -1.01502
C         50.32874        29.11662        -0.47994
C         49.04863        29.70939        -0.57713
C         50.29028        31.68151         0.36609
C         49.05993        31.05852        -0.07558
C         50.27410        33.04736         0.80058
C         48.98455        33.72723         0.99779
C         50.23205        35.98677         1.06077
C         48.95923        35.25373         1.12740
C         50.22262        37.39053         0.84539
C         48.96946        38.11834         0.70247
C         50.20740        40.16115        -0.07623
C         48.93640        39.49009         0.39360
C         50.18656        41.68821        -0.05404
C         48.94339        42.32690        -0.32000
C         50.14958        44.30246        -0.62483
C         48.88955        43.71039        -0.67571
C         51.41921        29.61602        -0.11141
C         52.66696        31.74252         0.71439
C         51.56048        30.95332         0.32598
C         52.58994        32.95755         1.02118
C         51.45043        33.79541         1.10471
C         52.56489        36.07720         1.29577
C         51.43124        35.22027         1.23661
C         52.56609        37.32113         1.17370
C         51.45509        38.15435         0.85759
C         52.49508        40.44627         0.54884
C         51.45543        39.51448         0.56232
C         52.61317        41.65722         0.22336
C         51.42730        42.43082        -0.04058
C         51.27360        43.79666        -0.33796
O         48.86045        34.38879         2.32480
O         45.70214        29.65182        -2.11153
O         36.82286        34.39681        -1.98093
O         42.33457        37.76059        -1.25067
O         41.65943        30.04824         1.63819
O         42.04717        33.36380         1.73745
O         45.33722        41.38031         1.75256
O         31.50029        34.31230        -1.94295
O         34.65960        35.58694        -2.19249
O         37.17092        31.02030        -1.41034
O         50.31511        39.81583        -1.50183
H         51.14125        40.22061        -1.84439
O         46.39724        38.24107         2.55250
H         46.29410        37.33262         2.90848
O         35.66819        38.05339        -2.14846
H         35.20285        37.48392        -2.80190
O         39.90573        27.18049        -1.64760
H         39.86427        26.22960        -1.88533
O         46.27702        33.51655         2.34289
H         47.11738        33.81514         2.77274
O         44.94028        45.65990        -2.69797
H         45.74248        45.18550        -3.01764
O         47.63450        44.13125        -2.65476
H         48.50306        44.40594        -3.01858
O         43.63245        39.47271         2.32982
H         44.13371        40.20942         2.75257
O         36.06726        37.56830         1.43510
H         36.69638        37.93720         2.09050
O         31.42003        38.70298        -2.03592
H         31.30931        37.91279        -2.60531
