         232
 CSIRO Nanostructure Databank - Neutral Graphene Oxide Data Set
C        -11.17129         0.70822        -0.15355
C        -10.01312         1.45251         0.20518
C         -8.81006         0.70119         0.60538
C         -7.53108         1.43350         0.70391
C         -6.29725         0.66646         0.73538
C         -5.00657         1.41195         0.62170
C         -3.67734         0.67035         0.62198
C         -2.48242         1.40211         1.17957
C         -1.30462         0.69104         1.27099
C         -0.03390         1.40598         1.31194
C          1.25141         0.60170         1.19700
C          2.47530         1.44669         1.67587
C          3.78144         0.61705         1.66136
C          5.07232         1.39552         1.43933
C          6.42035         0.74049         1.27967
C          7.70177         1.50337         0.91480
C          8.75502         0.59486         0.29981
C          9.99909         1.26406        -0.17134
C         11.23698         0.51939        -0.12665
C         -9.96485         2.85354         0.23214
C         -8.77194         3.55469         0.53038
C         -7.54798         2.81754         0.73252
C         -6.31044         3.61192         1.09502
C         -5.01346         2.88818         0.77251
C         -3.75016         3.61940         1.03334
C         -2.57671         2.84636         1.62238
C         -1.23519         3.57669         1.48065
C          0.00035         2.77843         1.24102
C          1.21784         3.45989         0.81959
C          2.47289         2.72991         0.85422
C          3.61556         3.29064         0.33349
C          4.94672         2.72694         0.69575
C          6.13989         3.32925        -0.02460
C          7.51251         2.75804         0.08965
C          8.61026         3.18070        -0.83633
C          9.89381         2.51468        -0.72271
C         -8.74273         4.99216         0.53294
C         -7.55952         5.71404         0.50746
C         -6.26814         4.94308         0.35369
C         -5.01149         5.71180         0.68781
C         -3.79423         5.01555         0.96646
C         -2.53959         5.79949         1.09676
C         -1.22732         5.04859         1.21262
C          0.05786         5.73176         0.72327
C          1.16851         4.76318         0.33118
C          2.28673         5.27333        -0.42927
C          3.52727         4.50956        -0.45972
C          4.60834         4.96256        -1.20414
C          5.88246         4.22386        -1.19718
C          7.06858         4.77481        -1.95403
C          8.42107         4.24494        -1.66749
C         -7.50362         7.13553         0.36787
C         -6.29908         7.79666         0.19196
C         -5.02646         7.09232         0.34330
C         -3.83576         7.76306         0.06151
C         -2.55603         7.20854         0.49487
C         -1.33782         7.71905        -0.14548
C         -0.21949         6.78632        -0.33385
C          0.92791         7.23869        -1.18180
C          2.19179         6.47962        -1.12074
C          3.22151         6.91143        -2.06650
C          4.49876         6.08861        -2.14014
C          5.72876         6.74660        -2.64819
C          6.93443         6.11114        -2.56331
C         -6.23054         9.23373        -0.02927
C         -5.08764         9.83082        -0.44130
C         -3.89596         8.98020        -0.81567
C         -2.57603         9.67850        -0.95037
C         -1.38503         8.93698        -0.87285
C         -0.17129         9.42630        -1.50512
C          0.94298         8.63804        -1.66847
C          2.15129         9.13211        -2.28625
C          3.24578         8.32798        -2.50240
C          4.45015         8.81105        -3.13761
C          5.59862         8.07736        -3.20922
C        -11.14853        -0.66409        -0.35990
C         -9.96122        -1.44198        -0.22564
C         -8.81075        -0.80492         0.45017
C         -7.51198        -1.58413         0.52752
C         -6.28727        -0.69686         0.62538
C         -5.03859        -1.45315         0.86371
C         -3.75670        -0.74059         1.15136
C         -2.49291        -1.48888         1.13312
C         -1.29917        -0.78827         1.21235
C         -0.08473        -1.51349         1.47755
C          1.07476        -0.69323         2.00351
C          2.38698        -1.45657         2.13779
C          3.67508        -0.72113         1.98136
C          4.81697        -1.59213         2.28213
C          6.67526        -0.46888         1.86638
C          7.72037        -1.40580         1.51989
C          8.82786        -0.83326         0.70769
C         10.13962        -1.51171         0.74021
C         11.30806        -0.77161         0.31105
C         -9.84706        -2.75228        -0.70716
C         -8.58980        -3.42009        -0.80866
C         -7.36698        -2.53169        -0.68178
C         -6.04693        -3.30391        -0.61351
C         -4.87487        -2.76154         0.17704
C         -3.68892        -3.58085         0.46871
C         -2.57182        -2.98848         1.31100
C         -1.23914        -3.65223         1.07959
C         -0.07284        -2.92208         1.43666
C          1.15853        -3.69407         1.74264
C          2.43205        -2.96530         2.09494
C          3.74439        -3.80028         2.14406
C          4.99361        -2.91721         1.99900
C          6.39938        -3.58501         2.21712
C          7.63722        -2.75884         1.75187
C          8.92082        -3.49786         1.56401
C         10.16934        -2.77608         1.24472
C         -8.45635        -4.74920        -1.17408
C         -7.18045        -5.42038        -1.26705
C         -6.01000        -4.73146        -0.93854
C         -4.68065        -5.36336        -0.97351
C         -3.56295        -4.81760        -0.14123
C         -2.38175        -5.59798         0.06967
C         -1.19937        -5.01655         0.64292
C          0.04849        -5.71445         0.58071
C          1.24360        -5.10796         1.21190
C          2.58922        -5.67826         0.92121
C          3.74080        -5.05402         1.29842
C          5.07195        -5.70340         1.11610
C          6.36926        -4.99093         1.47340
C          7.55121        -5.44916         0.68334
C          8.86977        -4.91099         1.03149
C         -7.12192        -6.81945        -1.61866
C         -5.93749        -7.52491        -1.63655
C         -4.65883        -6.83849        -1.36487
C         -3.51113        -7.65230        -0.96359
C         -2.40569        -7.02653        -0.25520
C         -1.06304        -7.78420        -0.28127
C          0.15836        -7.00248        -0.01558
C          1.39021        -7.62536        -0.24119
C          2.61365        -7.05108         0.34379
C          3.93966        -7.66409        -0.01775
C          5.12256        -6.79549         0.11100
C          6.23631        -7.03314        -0.65814
C          7.45864        -6.33470        -0.35361
C         -5.86180        -8.94657        -1.88865
C         -4.68337        -9.63126        -1.81071
C         -3.45669        -9.00890        -1.34118
C         -2.21230        -9.68207        -1.40211
C         -0.99802        -9.03159        -1.06512
C          0.26206        -9.52036        -1.40950
C          1.47336        -8.86115        -0.99895
C          2.69870        -9.37580        -1.40179
C          4.03407        -8.91916        -0.88041
C          5.11150        -8.80710        -1.93354
C          6.16931        -7.99228        -1.75937
O          5.12642         2.67211         2.14752
O          3.31128        -7.99181         1.26418
O          9.10115        -4.65992         2.42757
O          6.57475        -3.84433         3.60398
H          5.92269        -4.54523         3.84351
O         -5.06129         2.28935        -0.57488
O         -4.27930        -5.77918        -2.32471
O          6.20791         3.69385        -2.52530
O         -9.10695        -0.20995         1.75258
O         -3.34308         0.43011        -0.78416
H         -3.70530         1.19622        -1.29140
O          5.85197        -0.90199         2.89118
O         -4.60788        -1.20697         2.24585
O         -4.99035        -2.54185        -1.29859
O         -2.55288         6.95471         1.96786
O          2.32111        -2.25133         3.37903
O          1.47432         0.20707        -0.17431
H          1.38621         0.99816        -0.74645
O          3.83852        -4.30933         3.49843
H          3.48602        -3.60993         4.09554
O          4.45998       -10.00565         0.00238
H          4.02317        -9.83714         0.86965
O          0.59141         6.47844         1.84579
H          0.43923         5.93142         2.65055
O         -0.14094         6.35516        -1.73926
O         -4.20065         8.46720        -2.18475
H         -4.19223         9.23831        -2.79126
O         -2.89057        -3.24016         2.73102
H         -2.68184        -4.18006         2.91893
O          3.45018         5.94118        -3.15132
O          8.26798         1.91889         2.18254
H          7.74242         2.69808         2.47920
O         -7.55366        -2.42116         1.70290
H         -7.89268        -1.86315         2.43826
O          0.96905        -4.82897         2.64027
O         -1.04695         4.54295         2.58359
O          0.69666        -0.28433         3.34664
H          0.82754        -1.07040         3.92723
O         -6.16881         4.63572        -1.06683
H         -6.07758         5.48151        -1.55430
O         -2.88958         2.77590         3.04695
H         -2.45856         3.55988         3.46512
O         -1.93080        -7.86297         0.87240
O          2.27073         1.85608         3.04012
H          1.80556         1.12512         3.51869
O          5.81496        -6.01507         2.35080
O          8.30116        -0.43620        -0.63467
O          7.09982         3.91075         0.91692
O         -6.36438         3.90624         2.50545
H         -6.42163         3.06601         3.00584
O         -7.35342        -1.71058        -1.86912
H         -6.41211        -1.62867        -2.15390
H         12.27852        -1.28926         0.33021
H         12.15168         1.02839        -0.46571
H         10.77443         2.99957        -1.17110
H          9.26010         4.62974        -2.26750
H          7.84952         6.61842        -2.90608
H          6.49048         8.51594        -3.68105
H          4.43458         9.83035        -3.55164
H          2.17737        10.18428        -2.60917
H         -0.17231        10.45251        -1.90324
H         -2.56134        10.64715        -1.47580
H         -5.05161        10.91692        -0.61609
H         -7.14107         9.82809         0.14348
H         -8.44491         7.70705         0.35129
H         -9.70346         5.52899         0.48363
H        -10.87237         3.42650        -0.01245
H        -12.10281         1.25945        -0.35120
H        -12.05468        -1.15845        -0.74125
H        -10.75390        -3.27115        -1.05663
H         -9.36294        -5.34664        -1.35839
H         -8.06619        -7.34138        -1.83530
H         -6.78332        -9.47017        -2.18360
H         -4.65532       -10.70168        -2.06157
H         -2.17179       -10.68130        -1.85979
H          0.34505       -10.46011        -1.97517
H          2.70291       -10.30377        -1.99485
H          5.08358        -9.51311        -2.77646
H          7.00284        -7.99945        -2.47788
H          8.36852        -6.60571        -0.91075
H          9.74547        -5.29903         0.46669
H         11.11560        -3.32585         1.35240
