         314
 CSIRO Nanostructure Databank - Neutral Graphene Oxide Data Set
C         30.27617        57.22137        -0.31209
C         30.30784        58.62850        -0.54125
C         29.16125        59.28296        -1.07615
C         30.45131        61.28848        -1.51163
C         29.24373        60.59728        -1.53772
C         32.79354        52.88826         0.04384
C         32.84048        54.36437        -0.26286
C         31.52097        55.09380        -0.21150
C         32.65921        57.23705         0.36554
C         31.45573        56.47170        -0.06455
C         32.67209        58.73778         0.24155
C         31.50912        59.38062        -0.38596
C         32.85157        61.38631        -0.97210
C         31.61932        60.69947        -0.93632
C         35.20252        48.62180         0.24503
C         35.16566        50.02912         0.35132
C         33.98002        50.77048         0.35178
C         35.22150        52.95723         0.51647
C         33.96137        52.20699         0.32025
C         35.20737        54.33025         0.63428
C         33.87631        55.04628         0.65435
C         35.25820        57.26218         0.30621
C         33.96861        56.51145         0.27036
C         35.25343        58.74167         0.52138
C         33.97000        59.49813         0.32148
C         35.38372        61.44161        -0.57934
C         34.04422        60.88006        -0.29399
C         37.86290        44.36361        -0.21172
C         37.78321        45.82116        -0.04644
C         36.48406        46.51304         0.07188
C         37.61801        48.57041         0.86531
C         36.41899        47.87623         0.29695
C         37.73609        50.03316         0.62436
C         36.44820        50.77570         0.31477
C         37.69719        52.85561         0.65214
C         36.47171        52.22350         0.52992
C         37.74557        54.32130         0.81737
C         36.45752        55.09677         0.81496
C         37.74942        57.20185         0.25678
C         36.52365        56.53698         0.50936
C         37.75766        58.60790         0.01654
C         36.58168        59.44921         0.31000
C         37.85306        61.58924        -0.40071
C         36.54533        60.83529        -0.23544
C         40.30887        40.12815        -0.60973
C         40.27179        41.50002        -0.32175
C         39.10621        42.27312        -0.45571
C         40.34156        44.38931         0.08795
C         39.06059        43.67153        -0.18048
C         40.30145        45.77683         0.60143
C         39.03347        46.52550         0.44074
C         40.14139        48.57073         1.55436
C         38.88431        47.83737         1.14556
C         40.09130        50.10167         1.72557
C         38.93828        50.77601         1.01135
C         40.19728        52.90407         0.98862
C         38.94884        52.14814         0.83627
C         40.23565        54.28656         0.73974
C         38.98038        54.95648         0.23403
C         40.23226        57.08135         0.11985
C         38.99980        56.45882         0.27068
C         40.26999        58.43602        -0.43938
C         38.94553        59.23817        -0.53538
C         40.28109        61.27987        -0.86056
C         39.06738        60.70828        -0.61396
C         42.84494        35.89488        -1.48058
C         42.74099        37.36132        -1.42712
C         41.52490        38.02529        -0.99394
C         42.78510        40.02470        -0.30663
C         41.52737        39.37877        -0.64199
C         42.73479        41.29966         0.43430
C         41.46259        42.09966         0.33236
C         42.73164        44.20170         1.07834
C         41.59284        43.58326         0.38318
C         42.67325        45.64296         1.31081
C         41.43455        46.40060         1.02929
C         42.70040        48.61375         1.32019
C         41.44287        47.83132         1.47029
C         42.61595        50.03109         1.32869
C         41.41743        50.77015         1.40254
C         42.62809        52.95724         1.31886
C         41.41755        52.19994         1.24068
C         42.65060        54.34299         1.14924
C         41.44750        55.02216         0.80107
C         42.70527        57.12305         0.33962
C         41.47777        56.41755         0.43578
C         42.71087        58.46956        -0.16073
C         41.53948        59.15414        -0.47375
C         42.74036        61.23553        -0.96090
C         41.53483        60.55202        -0.84135
C         45.30741        33.13959        -1.77333
C         44.09825        33.81187        -1.70872
C         45.32252        36.02172        -1.91822
C         44.04041        35.24418        -1.65832
C         45.32429        37.38625        -1.26422
C         44.06824        38.14820        -1.27987
C         45.26384        40.08049        -0.23418
C         44.01180        39.43774        -0.57413
C         45.28703        41.40401         0.30785
C         44.02072        41.99064         0.81932
C         45.29653        44.20232         1.37028
C         43.98556        43.44240         1.28128
C         45.27527        45.70887         1.35256
C         43.96964        46.46173         1.43860
C         45.16161        48.59203         0.92650
C         43.94340        47.92470         1.16272
C         45.12992        50.07325         0.77848
C         43.85842        50.80232         1.07772
C         45.15961        52.93141         1.90095
C         43.87628        52.21290         1.60430
C         45.16078        54.47432         1.85585
C         43.88494        55.14338         1.38521
C         45.15217        57.20635         0.76072
C         43.95315        56.50877         0.78589
C         45.14140        58.63896         0.36549
C         44.02925        59.08580        -0.55520
C         45.18269        61.27894        -0.81116
C         43.98837        60.58870        -0.73981
C         46.53322        33.82851        -1.68470
C         47.75162        35.90960        -1.27885
C         46.57349        35.23254        -1.59738
C         47.76998        37.30642        -0.99156
C         46.49413        38.01563        -0.90678
C         47.71373        40.08851        -0.30406
C         46.48635        39.40377        -0.47550
C         47.71026        41.46753         0.03306
C         46.48782        42.10802         0.39525
C         47.71700        44.30989         0.51568
C         46.61578        43.43629         1.11585
C         47.63794        45.73484         0.55081
C         46.47567        46.44355         0.89780
C         47.64600        48.60036         0.88158
C         46.42574        47.88976         0.87840
C         47.67972        50.07175         0.97751
C         46.40522        50.85158         0.91027
C         47.60872        52.63220         2.07482
C         46.41050        52.16018         1.60811
C         47.61155        54.77025         2.16594
C         46.44163        55.25176         1.65016
C         47.62738        57.33944         1.07235
C         46.43481        56.62536         1.13543
C         47.69886        58.85935         0.91180
C         46.39424        59.44774         0.38898
C         47.63224        61.20278        -0.84059
C         46.43148        60.66602        -0.45750
C         48.95708        37.98979        -0.75415
C         50.16754        40.09065        -0.32109
C         48.97205        39.39048        -0.46429
C         50.18977        41.51358        -0.17073
C         48.93457        42.21377        -0.00115
C         50.11443        44.36323        -0.27146
C         48.89440        43.62896         0.11329
C         50.14015        45.83946        -0.03389
C         48.86171        46.53358         0.27387
C         50.11546        48.57497         0.95712
C         48.90312        47.92420         0.79449
C         50.17838        49.95316         1.47420
C         48.89300        50.69716         1.58047
C         50.10788        52.91594         1.60807
C         48.92110        52.16517         1.70872
C         50.14393        54.37988         1.56145
C         48.97471        55.26473         1.88388
C         50.14323        57.20367         0.74060
C         48.93375        56.69524         1.40205
C         50.12157        58.59792         0.32582
C         48.95629        59.36789         0.20483
C         50.00411        61.26350        -1.15299
C         48.91742        60.62424        -0.52177
C         51.41236        42.19380        -0.13520
C         52.70553        44.41348        -0.16002
C         51.46046        43.63670        -0.32883
C         52.71121        45.76669         0.15354
C         51.41818        46.42418         0.48111
C         52.64566        48.62466         0.93765
C         51.39619        47.84811         0.93528
C         52.62539        50.02224         1.12249
C         51.40509        50.75395         1.35102
C         52.57880        52.89003         1.15531
C         51.35330        52.16558         1.37687
C         52.55181        54.29883         0.94956
C         51.30861        55.03166         1.08653
C         52.46501        56.96359        -0.15042
C         51.29042        56.43084         0.66762
C         52.56984        58.47353        -0.13963
C         51.41948        59.17685         0.17754
C         52.53516        61.17484        -1.52961
C         51.36113        61.03710        -0.80753
C         53.88758        46.53412         0.34561
C         55.08914        48.63043         0.79475
C         53.87749        47.91513         0.70264
C         55.12123        50.03366         1.01869
C         53.85884        50.75447         1.12862
C         55.07925        52.89606         1.17623
C         53.81284        52.14878         1.13864
C         55.02977        54.23515         0.53157
C         53.76499        54.99448         0.58981
C         55.01361        57.03323        -0.10706
C         53.78824        56.32202         0.17167
C         54.99569        58.42176        -0.50264
C         53.75757        59.15171        -0.55153
C         54.96071        61.05496        -1.54434
C         53.74418        60.47949        -1.14497
C         56.34227        50.71281         1.02244
C         57.63389        52.90099         0.79767
C         56.41371        52.15902         1.15831
C         57.61442        54.25665         0.50619
C         56.31775        54.92584         0.20864
C         57.49085        57.06317        -0.19953
C         56.27300        56.38235        -0.00040
C         57.47042        58.42599        -0.61721
C         56.21676        59.08050        -0.80221
C         57.42000        61.09459        -1.57161
C         56.20612        60.42996        -1.30315
C         58.79671        55.01609         0.33889
C         59.95428        57.09557        -0.25650
C         58.76189        56.38034        -0.03793
C         59.94228        58.44778        -0.68046
C         58.68851        59.11200        -0.87957
C         59.89605        61.13187        -1.59504
C         58.66559        60.46422        -1.35031
C         61.14309        59.15849        -0.93199
C         61.10871        60.48084        -1.37986
O         37.87660        48.00519         2.19688
O         45.46651        44.95563         2.61125
O         51.36178        46.71311         1.92087
O         44.30317        50.62401        -0.31336
O         55.81432        52.75029         2.41370
O         51.54203        60.52699         0.50038
O         43.22801        46.08698         2.61749
O         36.02127        59.20233         1.65774
O         47.55115        53.66746         3.00702
O         39.51590        58.54374        -1.69855
O         33.84666        60.65950         1.17524
O         50.67867        44.01225        -1.55833
O         43.38370        38.07252        -2.57251
O         47.27895        50.76446        -0.27002
O         44.27635        55.10152         2.81664
O         41.35418        44.19227        -0.95809
O         37.33398        50.32620        -0.76396
O         40.73473        47.97625         2.76202
O         49.23543        56.38383         2.81315
O         41.78114        41.36427         1.54688
O         45.39110        59.56276         1.47270
O         49.42493        46.53241        -1.10529
O         44.36312        52.34871         2.98489
O         55.56877        54.19228        -0.84394
O         44.01474        42.32182         2.24182
O         37.23365        54.80435         2.08028
O         38.67738        46.59237        -0.97537
O         32.41890        58.05276         1.53814
O         49.44328        50.04558         2.76788
O         34.63122        56.82598        -0.99260
O         47.86888        59.36158         2.26768
H         46.96837        59.40312         2.66629
O         52.15486        56.56777        -1.53523
H         52.98052        56.64826        -2.05882
O         39.84376        50.35799         3.13691
H         40.27628        49.62685         3.63791
O         45.36018        36.27289        -3.35989
H         44.62238        36.90368        -3.54594
O         38.88499        54.62496        -1.19683
H         39.63827        55.05104        -1.65845
O         37.76110        62.56073        -1.44671
H         37.77400        62.09178        -2.30598
O         44.35683        58.51467        -1.86464
H         43.63209        58.74744        -2.48292
O         33.29569        54.48092        -1.64361
H         34.23247        54.19145        -1.68211
O         47.13622        43.06092         2.42440
H         46.81706        43.74229         3.06281
O         33.35180        54.97339         1.99825
H         34.05065        55.24428         2.62975
H         29.34582        56.68013        -0.54279
H         28.21682        58.72683        -1.15919
H         30.51467        62.30726        -1.91909
H         28.35147        61.07985        -1.96055
H         31.86826        52.32481        -0.15234
H         30.60785        54.54070        -0.48278
H         32.91692        62.34053        -1.51532
H         34.25898        48.07672         0.08909
H         33.01713        50.24037         0.29461
H         35.43321        62.44320        -1.03630
H         36.92773        43.80883        -0.38039
H         35.57306        45.95354        -0.18901
H         38.01241        62.16920         0.55177
H         39.39061        39.63520        -0.96175
H         38.18230        41.78122        -0.79450
H         40.33658        62.37401        -0.96939
H         41.92480        35.30968        -1.32440
H         40.58078        37.46088        -0.99029
H         42.73350        62.31852        -1.15642
H         45.31398        32.04130        -1.81492
H         43.15577        33.24592        -1.66849
H         45.18805        62.32882        -1.14316
H         47.46907        33.25742        -1.59306
H         48.68807        35.33913        -1.17559
H         47.62866        62.11429        -1.45744
H         49.91569        37.45581        -0.83546
H         51.12375        39.55605        -0.42257
H         49.77750        61.99323        -1.94568
H         52.35211        41.62647        -0.06071
H         53.66181        43.87917        -0.26751
H         52.56221        61.79604        -2.43704
H         54.86213        46.05473         0.16836
H         56.04040        48.09611         0.65357
H         54.95006        62.05283        -2.00735
H         57.26352        50.16124         0.78165
H         58.59764        52.37249         0.85455
H         57.39549        62.12717        -1.95089
H         59.77115        54.53035         0.49545
H         60.91916        56.58485        -0.12040
H         59.88168        62.17032        -1.95559
H         62.10808        58.65528        -0.77602
H         62.05151        61.01253        -1.57067
