         490
 CSIRO Nanostructure Databank - Neutral Graphene Oxide Data Set
C         37.52847        49.81938        -0.48306
C         36.33368        50.47257        -0.74770
C         37.47111        52.60098        -0.62777
C         36.30422        51.87357        -0.81586
C         40.06574        48.46232         0.15695
C         39.96316        49.84777         0.05722
C         38.73015        50.53729        -0.27487
C         39.93107        52.74060        -0.22360
C         38.70538        51.96370        -0.35927
C         39.92866        54.16001        -0.29965
C         42.52248        48.45785         0.28570
C         41.29978        47.78806         0.28048
C         42.51394        49.92117         0.41537
C         41.15997        50.65395         0.32200
C         42.39617        52.80305        -0.01382
C         41.17233        52.09065        -0.00637
C         42.36484        54.23802        -0.10441
C         41.09509        54.88225        -0.19161
C         45.06026        45.70339         0.39697
C         43.89028        46.36944         0.47946
C         44.98180        48.54166         0.04543
C         43.79750        47.79580         0.20888
C         44.95665        49.98644        -0.03128
C         43.72813        50.68196         0.10308
C         44.88059        52.80215        -0.21480
C         43.67151        52.09646        -0.00034
C         44.83807        54.26282        -0.32460
C         43.57317        54.98204        -0.11801
C         44.79621        57.10248         0.07371
C         43.63338        56.41655        -0.11664
C         47.65034        44.28572        -0.00369
C         47.57157        45.70598         0.13881
C         46.26685        46.38461        -0.19403
C         47.43226        48.58892         0.21309
C         46.26184        47.87255         0.08003
C         47.44347        50.01742        -0.03998
C         46.16988        50.70436        -0.18179
C         47.36882        52.85622        -0.35461
C         46.13618        52.13121        -0.27423
C         47.41460        54.25779        -0.17767
C         46.13724        55.02074        -0.20690
C         47.34520        57.16390         0.19818
C         46.07508        56.39230         0.43538
C         47.40048        58.56376         0.37494
C         50.00024        44.25287         0.63994
C         48.82072        43.58843         0.23942
C         49.92916        45.70774         0.80441
C         48.68662        46.42480         0.50715
C         49.97141        48.57476         0.17976
C         48.69746        47.92596         0.71223
C         49.98505        50.08657         0.10602
C         48.63517        50.69194        -0.22992
C         49.91771        52.83425        -0.58924
C         48.60401        52.09637        -0.77604
C         49.85350        54.34028        -0.74522
C         48.61997        54.96575        -0.12120
C         49.91342        57.18945         0.04720
C         48.60244        56.40287         0.18731
C         49.77606        58.64583        -0.38796
C         48.55525        59.29306         0.20156
C         52.58349        41.54016         1.16451
C         51.35632        42.18037         0.90903
C         52.48016        44.35032         0.71006
C         51.26398        43.58533         0.76512
C         52.48727        45.73197         0.54808
C         51.23997        46.50829         0.67071
C         52.42549        48.43173        -0.49761
C         51.14604        47.89986         0.14798
C         52.45779        49.97644        -0.86791
C         51.03766        50.64314        -0.87644
C         52.40412        52.89657        -0.89887
C         51.08844        52.16102        -0.69512
C         52.34122        54.34768        -0.47184
C         51.15351        55.03444        -0.41125
C         52.34952        57.20723        -0.47071
C         51.14712        56.47366        -0.28980
C         52.30235        58.68549        -0.59915
C         51.07181        59.41302        -0.23434
C         52.37733        61.46531         0.12816
C         51.13826        60.75683         0.01919
C         55.03814        40.47403         2.33772
C         55.05602        41.65319         1.55613
C         53.79701        42.21788         1.10124
C         54.99394        44.39468         0.98226
C         53.78090        43.60108         0.49800
C         54.94670        45.84648         0.54944
C         53.71191        46.47088         0.41713
C         54.87402        48.69368         0.14192
C         53.58432        47.97877         0.41609
C         54.82100        50.06665         0.03197
C         53.58827        50.78335        -0.22066
C         54.86754        52.91913        -0.25385
C         53.61046        52.16238        -0.34271
C         54.86790        54.36048        -0.35978
C         53.58909        55.08078        -0.04379
C         54.82779        57.26013        -0.42571
C         53.58281        56.54223        -0.43814
C         54.86386        58.67399        -0.34948
C         53.62399        59.44992        -0.49990
C         54.87425        61.51532         0.20219
C         53.59839        60.85044        -0.04184
C         54.93067        62.88593         0.50345
C         57.41481        40.66654         2.68724
C         56.20049        40.01052         2.93148
C         57.51510        41.77870         1.82396
C         56.30491        42.30697         1.32402
C         57.52431        44.48205         1.03472
C         56.31261        43.65737         0.63048
C         57.46247        45.95197         0.75326
C         56.15592        46.59615         0.48176
C         57.35522        48.63903        -0.09385
C         56.13162        47.97489         0.23161
C         57.24593        50.05923        -0.44365
C         56.11491        50.80851         0.24235
C         57.38209        52.98631        -0.07378
C         56.07517        52.25219        -0.14538
C         57.31795        54.40249        -0.54213
C         56.06497        55.08164        -0.49476
C         57.27646        57.24587        -0.47758
C         56.06570        56.54329        -0.47876
C         57.30971        58.64230        -0.20468
C         56.08283        59.36200        -0.13208
C         57.34190        61.44087         0.34694
C         56.09747        60.78198         0.11851
C         57.36603        62.84540         0.59477
C         56.14887        63.53696         0.68279
C         60.60941        37.43075         2.44919
C         59.58557        38.17528         3.02457
C         60.29224        40.17007         1.75194
C         59.45904        39.52778         2.69091
C         60.17353        41.65466         1.54436
C         58.85056        42.43437         1.58490
C         59.97364        44.50275         0.62483
C         58.84055        43.80551         0.99246
C         59.89497        45.88886         0.16785
C         58.69404        46.60398         0.27031
C         59.77129        48.63941        -0.64086
C         58.58449        47.95940        -0.18279
C         59.75015        50.03027        -0.89334
C         58.50592        50.79771        -0.82293
C         59.75091        52.93903        -0.90710
C         58.56157        52.24944        -0.63856
C         59.74669        54.38537        -0.94983
C         58.53020        55.07226        -0.81760
C         59.79001        57.12734        -0.34901
C         58.52642        56.57454        -0.98937
C         59.80279        58.54549         0.14877
C         58.54618        59.33123         0.06100
C         59.82918        61.30994         0.91443
C         58.56472        60.68290         0.35649
C         59.85817        62.81843         0.77252
C         58.64625        63.54364         0.71862
C         59.90673        65.61956         0.92324
C         58.70266        64.95315         0.76587
C         62.47933        35.78210         0.87399
C         62.74060        37.23393         1.19785
C         61.50942        38.03466         1.56602
C         62.44085        40.05540         0.45957
C         61.37727        39.40967         1.21900
C         62.23654        41.47504        -0.01737
C         61.34530        42.33509         0.86741
C         62.30275        44.38236        -0.41641
C         61.27860        43.79909         0.50724
C         62.23279        45.73119        -0.74410
C         61.05104        46.52801        -0.44052
C         62.10093        48.60821        -1.53614
C         60.97869        47.88389        -0.80105
C         62.19023        50.05878        -1.15462
C         60.96838        50.77338        -1.05221
C         62.24578        52.87232        -1.27539
C         60.95591        52.18634        -1.11391
C         62.27564        54.37396        -1.35460
C         60.97037        55.16408        -1.41871
C         62.26653        57.15648        -0.52697
C         61.06447        56.50430        -0.72736
C         62.29918        58.55759        -0.12165
C         61.09800        59.25263         0.15156
C         62.33509        61.31123         0.52321
C         61.10995        60.63503         0.44253
C         62.34282        62.72113         0.97497
C         61.08229        63.49974         0.90850
C         62.39641        65.62636         1.14344
C         61.12403        64.91290         1.01154
C         62.44131        67.01402         1.38980
C         64.77204        35.54263        -0.17145
C         63.43934        35.02638         0.33126
C         64.73365        37.08271        -0.42072
C         63.58440        37.87792         0.12020
C         64.75428        40.05043        -0.40297
C         63.57557        39.36402         0.07181
C         64.73391        41.44874        -0.49128
C         63.51570        42.19899        -0.38032
C         64.64946        44.17313        -1.33863
C         63.45256        43.55041        -0.72409
C         64.61210        45.65560        -1.69026
C         63.27002        46.38346        -1.66776
C         64.59084        48.53713        -1.18220
C         63.40247        47.86983        -1.41995
C         64.63100        49.95355        -0.96404
C         63.43611        50.71688        -1.01009
C         64.70831        52.84577        -0.82588
C         63.47388        52.14480        -0.92283
C         64.71859        54.29614        -0.84956
C         63.52517        55.05302        -0.95098
C         64.75939        57.14690        -0.62404
C         63.52305        56.44845        -0.71769
C         64.77625        58.57994        -0.38750
C         63.54373        59.25966        -0.08365
C         64.82467        61.36391         0.27496
C         63.56617        60.64545         0.25236
C         64.86929        62.76375         0.51036
C         63.64752        63.46814         0.94346
C         64.83937        65.64845         0.90847
C         63.62424        64.94552         0.95458
C         64.87317        67.02547         1.22673
C         63.65162        67.68448         1.48503
C         67.01317        34.11832         2.63108
C         65.84540        34.49879         1.97228
C         67.22070        35.37162         0.21879
C         65.93422        35.10638         0.70855
C         67.22698        37.24019        -0.84720
C         65.97858        37.86363        -0.71081
C         67.20485        39.95561        -0.86799
C         65.97716        39.29034        -0.63852
C         67.26589        41.42724        -0.88789
C         65.99839        42.18476        -0.66393
C         67.12379        44.23919        -1.49682
C         65.95653        43.56379        -1.14391
C         67.07263        45.67420        -1.61339
C         65.88070        46.36926        -1.53739
C         67.14003        48.51474        -1.09731
C         65.85686        47.75330        -0.93055
C         67.13980        50.01575        -1.14077
C         65.89346        50.62734        -0.48524
C         67.17708        52.82927        -0.67046
C         65.91986        52.13344        -0.66074
C         67.19260        54.26259        -0.69972
C         65.95927        54.98994        -0.73449
C         67.23379        57.11182        -0.90690
C         65.95903        56.40986        -0.72868
C         67.24023        58.63751        -0.78616
C         65.98729        59.29627        -0.38237
C         67.28488        61.39806        -0.08134
C         66.03556        60.68190        -0.04529
C         67.27811        62.80630         0.10837
C         66.07521        63.48090         0.36774
C         67.36709        65.59999         0.86729
C         66.07861        64.99508         0.34720
C         67.34712        66.95286         1.35061
C         66.16399        67.68614         1.42556
C         67.39630        69.74847         1.95607
C         66.21634        69.08813         1.75049
C         69.50891        32.79055         3.53870
C         69.50699        33.92686         2.70511
C         68.30442        34.47705         2.15440
C         69.63862        35.98398         0.59508
C         68.40036        35.28713         0.97305
C         69.67135        37.20895        -0.17673
C         68.47217        37.88785        -0.65369
C         69.69576        40.02397        -0.95758
C         68.45153        39.28952        -0.84349
C         69.69896        41.38791        -1.34676
C         68.38392        42.04844        -1.69769
C         69.59563        44.24285        -1.76453
C         68.40084        43.55716        -1.58813
C         69.63904        45.67231        -1.73162
C         68.34735        46.44033        -1.83765
C         69.72970        48.50327        -1.18685
C         68.36403        47.75960        -1.09115
C         69.62263        49.98542        -1.29028
C         68.44452        50.63083        -0.57623
C         69.65413        52.83194        -0.81516
C         68.41940        52.13462        -0.73775
C         69.65498        54.23871        -0.57813
C         68.44523        54.96170        -0.60657
C         69.71140        57.11354        -0.63659
C         68.48519        56.39111        -0.69156
C         69.71847        58.55794        -0.63790
C         68.53478        59.30550        -0.54802
C         69.78484        61.42233        -0.21363
C         68.52536        60.70882        -0.30505
C         69.80380        62.82371        -0.00396
C         68.53074        63.62110        -0.13435
C         69.83285        65.58985         0.83922
C         68.55576        64.92618         0.64380
C         69.87487        66.92547         1.31683
C         68.62684        67.54910         1.89053
C         69.86199        69.72035         2.10497
C         68.65733        69.06793         1.90816
C         69.96248        71.07081         2.61515
C         71.82395        32.30706         2.91828
C         70.65779        32.02200         3.69606
C         71.89880        33.44337         2.16997
C         70.84320        34.50946         2.32784
C         72.03991        36.21024         0.98662
C         70.82535        35.54969         1.22764
C         72.07731        37.38336         0.24968
C         70.89155        37.94987        -0.26130
C         72.11563        40.04698        -0.95670
C         70.91433        39.32874        -0.75641
C         72.10909        41.37860        -1.35522
C         70.89886        42.07094        -1.56218
C         72.08885        44.27028        -2.08895
C         70.82742        43.45682        -2.18775
C         72.08150        45.61476        -1.97916
C         70.85251        46.38515        -1.83775
C         72.02203        48.62120        -2.08322
C         70.87368        47.81867        -1.78163
C         72.06799        49.98219        -1.91220
C         70.86377        50.77211        -1.61570
C         72.04057        52.99695        -1.39069
C         70.88394        52.18857        -1.20135
C         72.09451        54.30521        -0.98487
C         70.95015        54.91370        -0.22069
C         72.08315        57.13311         0.02467
C         70.91551        56.40987        -0.35937
C         72.15132        58.48894        -0.07917
C         71.05017        59.26098        -0.75248
C         72.21653        61.42030        -0.23690
C         71.01064        60.71783        -0.34255
C         72.23081        62.78080         0.04820
C         71.02646        63.50579         0.15060
C         72.24372        65.66251         0.50245
C         71.04065        64.93575         0.47464
C         72.26446        66.99089         0.91018
C         71.09276        67.61966         1.36236
C         72.24183        69.38211         2.78377
C         71.18329        69.07752         1.74477
C         72.22569        70.58386         3.40355
C         71.11092        71.49096         3.22351
O         67.20872        57.98903        -2.09692
O         69.26428        47.88917         0.04734
O         57.43695        45.41086         2.16210
O         59.69844        57.41181         1.08685
O         63.10477        62.91950         2.21805
O         67.30676        35.86560        -1.08996
O         69.77218        50.47215        -2.64831
O         61.96799        43.31241         1.72958
O         41.80465        50.38591         1.61197
O         63.54151        37.34727        -1.25108
O         45.53750        54.87068        -1.51351
O         64.56884        44.64546        -2.75129
O         59.75547        42.36956         2.73525
O         62.42520        53.59235        -2.59124
O         50.62157        46.28471         1.98194
O         52.95955        59.21766        -1.79443
O         57.46450        50.38205        -1.84241
O         49.44173        56.83292         1.37157
O         67.00658        42.00311         0.42395
O         58.50434        40.22309         3.43417
O         57.68863        53.09243         1.42602
H         57.12310        53.81844         1.77333
O         71.18449        54.64534         1.22356
H         71.22359        53.67098         1.33184
O         48.42549        52.00828        -2.23832
H         48.55372        52.92857        -2.57678
O         68.62237        67.18135         3.32273
H         69.40946        67.59774         3.73494
O         53.54705        55.10047         1.44648
H         52.67936        55.47946         1.70741
O         52.59502        52.90652        -2.36207
H         52.81906        51.97611        -2.61662
O         71.63203        69.76191         0.52240
H         71.70477        70.71564         0.74088
O         71.38195        59.25900        -2.19475
H         70.63034        59.67929        -2.66525
O         52.87324        50.05029        -2.27479
H         53.72973        49.57456        -2.35327
O         58.54629        56.91688        -2.40032
H         59.27544        56.39889        -2.82983
O         66.04884        65.33808        -1.09970
H         66.04368        66.31758        -1.16541
O         48.71438        48.19046         2.15847
H         49.43002        47.60896         2.52487
O         62.68273        46.23093        -3.00058
H         63.09627        45.41954        -3.39011
O         67.02101        50.39490        -2.53627
H         67.89366        50.27626        -2.97905
O         49.65866        54.53642        -2.20002
H         50.51923        54.32816        -2.62965
O         50.46384        50.33601        -2.16339
H         50.93335        50.85510        -2.84875
O         65.82778        47.48532         0.53085
H         65.91907        48.36330         0.97785
O         68.61094        50.36521         0.82859
H         67.72701        50.42721         1.26403
O         59.76841        61.05835         2.35836
H         60.57635        61.44311         2.76118
O         53.86928        43.43327        -0.96187
H         53.10339        42.88609        -1.23818
O         68.12212        41.72770        -3.09744
H         68.89905        42.06480        -3.60630
O         50.32041        50.53060         1.44681
H         49.77266        49.99517         2.06918
O         52.56373        47.68436        -1.72373
H         51.92158        48.05267        -2.36921
O         61.68967        48.66243        -2.94569
H         61.88399        47.77146        -3.33034
O         61.45980        41.34714        -1.26081
H         61.95735        40.75933        -1.86877
O         60.75927        55.46582        -2.83966
H         61.14621        54.70313        -3.33830
O         65.96073        50.33394         0.97250
H         65.20632        50.79516         1.39863
O         64.95461        34.93569        -1.46889
H         64.34865        35.39849        -2.08665
O         56.37928        50.74197         1.68060
H         56.94491        51.52736         1.90551
O         63.60876        37.26476         2.37951
H         63.05726        37.07539         3.16772
O         54.90297        44.41638         2.42572
H         55.70865        44.88256         2.75991
O         49.56147        58.54714        -1.83789
H         49.68029        59.43991        -2.22497
O         68.47354        64.02553        -1.54716
H         67.61062        64.49898        -1.66881
O         70.61620        43.17881        -3.62845
H         70.68891        44.03536        -4.10186
O         71.27761        35.27947         3.52622
H         71.29413        34.64698         4.27680
O         56.48917        43.49428        -0.79305
H         55.61137        43.26514        -1.18765
O         46.02985        56.11491         1.88287
H         46.29134        56.93259         2.35691
O         46.13163        46.26419        -1.65350
H         45.29343        46.70723        -1.90507
O         53.17809        48.36345         1.76058
H         53.93760        48.22477         2.36471
O         68.27642        46.87831        -3.24707
H         68.04855        46.09545        -3.79242
H         37.52946        48.72264        -0.42778
H         35.41262        49.89367        -0.90134
H         37.41940        53.69543        -0.69679
H         35.36002        52.39536        -1.02368
H         39.16692        47.83988         0.04910
H         38.98479        54.70690        -0.42095
H         41.28003        46.68964         0.25753
H         41.04408        55.97821        -0.23299
H         45.11065        44.63723         0.66088
H         42.99346        45.84687         0.84110
H         44.77296        58.20172         0.07220
H         42.70455        56.98996        -0.25193
H         46.76256        43.73781        -0.34685
H         46.47969        59.10159         0.65023
H         48.83562        42.50036         0.08572
H         48.52654        60.38042         0.35363
H         52.55192        40.48026         1.45549
H         50.43692        41.58202         0.96594
H         52.32257        62.52050         0.42846
H         50.22119        61.32633         0.22652
H         54.09064        39.96031         2.54470
H         54.00661        63.47422         0.57942
H         56.18150        39.14776         3.60964
H         56.13416        64.61268         0.90158
H         60.73891        36.37754         2.73568
H         58.90880        37.73287         3.76593
H         59.89776        66.71646         0.96568
H         57.78325        65.54795         0.68950
H         61.51313        35.32887         1.14357
H         61.51557        67.57741         1.56551
H         63.24774        33.95974         0.13510
H         63.63800        68.74882         1.75222
H         66.92925        33.55878         3.57280
H         64.86286        34.27300         2.41064
H         67.37727        70.83818         2.09724
H         65.28526        69.66929         1.77087
H         68.56759        32.43241         3.98105
H         69.07817        71.72443         2.62190
H         72.64116        31.57144         2.89825
H         70.62969        31.11449         4.31426
H         72.79323        33.65698         1.56701
H         72.95825        35.84448         1.46615
H         73.03290        37.91501         0.15535
H         73.08732        39.55154        -0.82837
H         73.07129        41.88101        -1.52472
H         73.05125        43.75126        -2.20641
H         73.04069        46.15270        -1.96443
H         72.94273        48.11208        -2.40433
H         73.02214        50.50647        -2.06399
H         72.91628        52.55692        -1.89046
H         72.98820        54.91114        -1.19088
H         72.92485        56.57155         0.45542
H         73.05290        59.01561         0.26375
H         73.17231        60.89849        -0.37984
H         73.19911        63.28456         0.16352
H         73.18348        65.19669         0.17844
H         73.20611        67.55634         0.88721
H         73.08299        68.68666         2.92084
H         73.03687        70.87772         4.08548
H         71.16443        72.49200         3.67353
