         720
 CSIRO Nanostructure Databank - Neutral Graphene Oxide Data Set
C         23.19415        27.06234         0.52822
C         23.10592        28.47132         0.79884
C         22.89758        31.59020         1.16817
C         22.95503        32.89926         1.48365
C         22.98727        35.96150         1.77504
C         23.04949        37.27761         2.07377
C         23.48742        40.18350         3.01229
C         23.80007        41.42550         3.54492
C         23.67966        44.43819         3.28589
C         23.58350        45.77702         3.17315
C         25.52220        24.59531        -1.09259
C         24.39583        25.09601        -0.48864
C         25.50288        27.28353        -0.26272
C         24.29500        26.47408        -0.07488
C         25.43391        28.74557         0.14969
C         24.14535        29.34377         0.56419
C         25.25795        31.69128         0.28639
C         24.03329        30.85243         0.54349
C         25.34836        33.10388         0.73745
C         24.23665        33.70966         1.55045
C         25.29889        35.92011         0.99148
C         24.16701        35.21834         1.35126
C         25.18133        37.42454         0.78917
C         24.35266        38.04701         1.95003
C         25.36791        40.32541         1.34608
C         24.10753        39.57107         1.77374
C         25.71829        41.62536         2.04906
C         24.86928        42.22991         3.11234
C         26.13563        44.51295         3.09655
C         24.97199        43.68249         3.64410
C         26.10364        45.99450         3.17991
C         24.74972        46.68351         3.32231
C         25.90716        48.80882         2.84928
C         24.73794        48.10929         2.99592
C         27.99091        23.55906        -2.52580
C         27.76851        24.97973        -2.25241
C         26.62534        25.43586        -1.51441
C         27.45501        27.75150        -1.75872
C         26.54542        26.81651        -1.21297
C         27.12544        29.14650        -1.56532
C         26.37536        29.63953        -0.54378
C         27.73104        31.83646        -0.29384
C         26.57112        30.96911         0.13375
C         27.74092        33.15764         0.11490
C         26.52031        33.81147         0.56151
C         27.74212        35.96364         0.50325
C         26.55441        35.25377         0.71588
C         27.70136        37.42116         0.48502
C         26.52909        38.11438         0.64836
C         27.75034        40.36052         0.27830
C         26.48731        39.60466         0.60583
C         28.01199        41.65056         0.97302
C         27.14369        41.95524         1.98153
C         28.20902        44.61621         1.72170
C         27.30520        43.96958         2.68897
C         28.28581        46.09698         1.90138
C         27.25226        46.78868         2.71239
C         28.47894        48.95055         2.43561
C         27.18713        48.16781         2.66926
C         28.35646        50.34002         1.85754
C         30.51376        23.42834        -2.46002
C         29.17408        22.88123        -2.63748
C         30.70207        24.80231        -2.72369
C         28.71388        25.93877        -2.68174
C         29.86656        28.17734        -2.60545
C         28.65787        27.33899        -2.43290
C         30.05850        29.46988        -2.11036
C         28.94218        30.27879        -1.72115
C         30.26568        31.58137        -0.07802
C         28.96386        31.23061        -0.75019
C         30.23510        33.07141         0.27053
C         28.98818        33.86621         0.17532
C         30.28415        35.94287         0.31648
C         29.01144        35.25534         0.34653
C         30.31021        37.41757         0.40477
C         29.00372        38.14978         0.41272
C         30.32692        40.29704         0.00202
C         29.01318        39.58978        -0.00534
C         30.41984        41.72306         0.40732
C         29.30179        42.35189         0.89637
C         30.68426        44.46912         1.34792
C         29.32934        43.88743         0.93879
C         30.67351        45.99264         1.24491
C         29.57121        46.76269         1.59874
C         30.72015        48.91245         1.30800
C         29.58754        48.19172         1.71816
C         30.72089        50.33153         1.19357
C         29.44976        50.99399         1.37677
C         32.89622        20.50062        -2.15843
C         31.74019        21.23645        -2.32899
C         32.85294        23.31696        -1.55921
C         31.64506        22.63016        -2.07197
C         32.94338        24.80269        -1.71156
C         31.86295        25.54185        -2.39875
C         33.16862        27.62984        -2.11053
C         31.99123        26.92459        -2.58746
C         33.23960        29.03920        -1.96712
C         31.32068        30.16682        -1.86456
C         32.79762        31.71058        -0.53702
C         31.48435        31.16501        -0.92752
C         32.79444        33.07704        -0.00585
C         31.53337        33.80675         0.25398
C         32.76261        35.96316         0.11002
C         31.49754        35.27412         0.18610
C         32.79988        37.37413        -0.05332
C         31.56345        38.13183         0.01968
C         32.78413        40.24731        -0.42293
C         31.57683        39.50241        -0.03025
C         32.85204        41.70436        -0.16837
C         31.70560        42.41433         0.28294
C         32.99875        44.49189         0.24211
C         31.81437        43.79136         0.58715
C         33.06422        45.92936         0.33427
C         31.95750        46.66045         0.99362
C         33.00640        48.88516         0.23481
C         31.95769        48.16699         1.01055
C         33.09395        50.34718         0.42012
C         31.93742        51.04551         0.84645
C         33.17891        53.13036         0.54330
C         32.02561        52.46668         0.90771
C         35.49858        18.98857        -2.02597
C         35.42951        20.33915        -1.61927
C         34.11181        21.01801        -1.52779
C         35.43848        23.20367        -1.37956
C         34.13188        22.55862        -1.30083
C         35.53825        24.63607        -1.74997
C         34.28633        25.42572        -1.86106
C         35.43424        27.52237        -1.14268
C         34.30007        26.88695        -1.68596
C         35.34487        28.89174        -0.81823
C         34.20166        29.67682        -1.14906
C         35.12539        31.48392         0.33000
C         34.02469        31.03782        -0.64216
C         35.18567        33.00704         0.68224
C         33.95131        33.77354         0.27133
C         35.20753        35.94131         0.26103
C         33.97866        35.23179         0.25269
C         35.26004        37.33774         0.03483
C         34.04290        38.03510        -0.17826
C         35.35992        40.19007        -0.44254
C         34.08570        39.46176        -0.52410
C         35.32249        41.64455        -0.86923
C         34.07630        42.37809        -0.37392
C         35.32955        44.49266        -0.80923
C         34.11686        43.77327        -0.26488
C         35.39738        45.94472        -0.43297
C         34.22012        46.62493        -0.06562
C         35.46551        48.82155        -0.42103
C         34.19550        48.10141        -0.22032
C         35.45996        50.27692        -0.37088
C         34.28971        51.01432         0.04637
C         35.53939        53.12956        -0.31898
C         34.34114        52.43930         0.09535
C         35.63313        54.54832        -0.27879
C         37.91934        18.89450        -1.71982
C         36.71866        18.31453        -2.13682
C         37.86483        20.20783        -0.94449
C         36.61127        21.03335        -1.25019
C         37.85601        23.20466        -0.93313
C         36.62274        22.46386        -1.17718
C         37.91929        24.58276        -0.92411
C         36.84821        25.41784        -1.57223
C         37.72631        27.33508        -0.20446
C         36.66808        26.77433        -0.89240
C         37.56101        28.69972         0.44925
C         36.63864        29.53964        -0.44865
C         37.70541        31.59952         0.22150
C         36.49368        30.93911         0.01294
C         37.70178        33.00094         0.33987
C         36.41442        33.73712         0.10612
C         37.74521        35.91862         0.15978
C         36.48029        35.20455         0.58648
C         37.74030        37.37068         0.09453
C         36.52894        38.06416         0.00381
C         37.80932        40.23653        -0.19105
C         36.53624        39.51122        -0.19261
C         37.82701        41.63697        -0.30961
C         36.59319        42.38602        -0.50316
C         37.85692        44.52596        -0.18206
C         36.60086        43.74664        -0.49524
C         37.84725        45.94749        -0.67667
C         36.62444        46.64848        -0.60767
C         37.93703        48.81736        -0.69456
C         36.62058        48.09403        -0.61954
C         37.73990        50.18132        -1.31319
C         36.61000        50.97032        -0.76372
C         37.86649        53.07143        -1.21983
C         36.66591        52.39262        -0.78864
C         37.93495        54.48722        -1.10684
C         36.78811        55.19686        -0.64649
C         40.60930        16.27363        -2.33636
C         39.33466        16.88432        -2.22814
C         40.38768        19.00062        -1.53883
C         39.17444        18.21978        -1.85134
C         40.29151        20.47662        -1.52092
C         39.13349        21.03247        -1.08331
C         40.30825        23.21837        -0.81516
C         39.07564        22.42131        -0.48814
C         40.33835        24.60310        -0.31507
C         39.06669        25.29584        -0.39069
C         39.90832        27.12147         1.11163
C         38.96820        26.62894         0.01159
C         40.01376        28.74216         1.28028
C         38.87521        29.44299         0.59955
C         40.20928        31.49802         0.44240
C         38.95357        30.81299         0.35543
C         40.23017        32.92518         0.09553
C         38.93216        33.72395         0.08775
C         40.18763        35.90645         0.34875
C         38.91696        35.20315         0.14507
C         40.19451        37.35998         0.16959
C         39.01427        38.07538         0.06987
C         40.26549        40.23278        -0.06642
C         39.04288        39.52806        -0.04384
C         40.30087        41.63286        -0.32629
C         39.07150        42.35006        -0.37645
C         40.28146        44.42111        -0.91872
C         39.09844        43.76290        -0.53969
C         40.28749        45.85333        -1.20559
C         39.08116        46.59957        -1.02187
C         40.22938        48.64321        -1.75344
C         39.08282        48.00523        -1.24891
C         40.14920        50.06964        -2.20464
C         38.91070        50.87911        -1.91393
C         40.18769        53.02108        -2.04462
C         38.99466        52.35438        -1.75444
C         40.29820        54.43030        -1.83518
C         39.16081        55.17924        -1.42417
C         40.44766        57.26148        -1.59843
C         39.26228        56.59572        -1.32574
C         43.08913        16.33402        -2.12683
C         41.79122        16.95826        -2.09529
C         42.97885        19.19357        -1.85205
C         41.73305        18.36676        -1.65186
C         42.91624        20.69160        -1.99049
C         41.43454        21.30557        -2.09434
C         43.15960        23.62988        -0.94922
C         41.28249        22.70493        -1.58768
C         42.77732        24.47050         0.25320
C         41.46751        25.23229         0.15590
C         42.59527        27.21801         1.31808
C         41.32406        26.36298         1.18228
C         42.52410        28.68978         1.56497
C         41.33967        29.42628         1.09027
C         42.70400        31.50798         0.84509
C         41.41613        30.79392         0.77743
C         42.77964        32.95193         0.51599
C         41.51749        33.68305         0.18159
C         42.76183        35.85816         0.40661
C         41.47505        35.14457         0.49653
C         42.75326        37.26349         0.18535
C         41.48858        38.03616         0.30629
C         42.88274        40.22398         0.02476
C         41.53052        39.53434         0.24340
C         42.78994        41.58693        -0.63396
C         41.52680        42.32719        -0.60258
C         42.69225        44.25986        -1.71204
C         41.48484        43.66859        -1.01109
C         42.72408        45.77832        -1.79753
C         41.46685        46.51431        -1.66121
C         42.58378        48.55048        -2.67494
C         41.41955        47.90315        -1.95028
C         42.68937        50.06132        -2.48231
C         41.39849        50.79477        -2.61707
C         42.67353        52.92532        -2.16315
C         41.37496        52.32329        -2.71664
C         42.70952        54.41257        -2.40397
C         41.55182        55.12472        -2.08978
C         42.86410        57.22920        -2.16412
C         41.60392        56.55362        -1.96968
C         44.21770        16.99757        -1.75776
C         45.52127        19.22135        -1.43193
C         44.23368        18.45419        -1.47497
C         45.55773        20.71952        -1.66208
C         44.24157        21.58057        -1.91437
C         45.45772        23.36037        -0.36654
C         44.21700        22.76730        -0.93354
C         45.30898        24.65103         0.41168
C         43.98269        25.32461         0.59668
C         45.05111        27.28176         1.91377
C         43.80740        26.58786         1.36173
C         45.11203        28.70512         1.41312
C         43.83356        29.45498         1.60300
C         45.13806        31.59302         1.49400
C         43.86014        30.87479         1.21154
C         45.14016        33.12409         1.44069
C         43.95930        33.75633         0.87794
C         45.22392        35.85076         0.52904
C         43.97650        35.14090         0.56792
C         45.20388        37.35139         0.42197
C         43.92626        37.93639        -0.08414
C         45.18804        39.93676        -1.02171
C         43.82860        39.27558        -0.76678
C         45.20997        41.42795        -1.24150
C         43.94522        42.18994        -1.04164
C         45.21199        44.22278        -1.85023
C         43.98268        43.70061        -1.08885
C         45.21230        45.74678        -1.87777
C         43.91999        46.40510        -2.10112
C         45.23609        48.60979        -2.38009
C         43.93143        47.83916        -2.49218
C         45.15736        50.07096        -2.17405
C         43.88689        50.73100        -2.39597
C         45.10710        52.93681        -2.07151
C         43.92850        52.22014        -2.68957
C         45.12946        54.33947        -2.12135
C         44.00091        55.08923        -2.81952
C         43.98604        56.56566        -2.52474
C         47.98197        19.07034        -1.13710
C         46.82051        18.49536        -1.48521
C         48.09440        20.52553        -0.89373
C         46.84143        21.34622        -1.13833
C         47.81112        23.07928         0.58360
C         46.79627        22.72527        -0.51773
C         47.83721        24.55069         0.94783
C         46.49172        25.15392         1.17423
C         47.63498        27.33019         1.75424
C         46.37939        26.54703         1.71777
C         47.67537        28.70198         1.66628
C         46.42204        29.43620         1.35159
C         47.66014        31.60536         1.40398
C         46.42097        30.90353         1.44408
C         47.68964        33.02296         1.20121
C         46.46727        33.88083         1.48806
C         47.67542        35.86011         0.51293
C         46.44126        35.19717         0.74034
C         47.66711        37.24606         0.08569
C         46.45512        37.94813        -0.14547
C         47.66694        40.00852        -0.68433
C         46.44957        39.27631        -0.60265
C         47.68883        41.44422        -0.94174
C         46.50052        42.14583        -1.17263
C         47.63263        44.31114        -1.15529
C         46.48628        43.58139        -1.30738
C         47.53983        45.79678        -0.98594
C         46.38115        46.43851        -1.72826
C         47.57479        48.62234        -1.26649
C         46.56925        47.88285        -2.13815
C         47.61197        50.13183        -1.51260
C         46.24611        50.79012        -1.66510
C         47.09117        52.92853        -0.53580
C         46.15440        52.19888        -1.47320
C         47.24560        54.37866        -0.91087
C         46.26530        55.03639        -1.57931
C         50.32636        20.27358         0.43084
C         49.28202        21.13271        -0.17700
C         50.34888        23.16550         0.86574
C         49.16851        22.50106         0.36467
C         50.25945        24.51335         1.49639
C         48.94671        25.15762         1.48399
C         50.12952        27.31737         2.28404
C         48.85797        26.54694         2.01555
C         50.13364        28.76370         1.96119
C         48.92607        29.44164         1.74317
C         50.11746        31.59847         1.45854
C         48.90151        30.88011         1.51150
C         50.12592        32.95315         1.06590
C         48.90492        33.67877         0.92702
C         50.11496        35.77670         0.37015
C         48.91704        35.11471         0.60282
C         50.12150        37.24900         0.29294
C         48.87918        37.96095        -0.06172
C         50.14164        40.07733        -0.52587
C         48.87491        39.32268        -0.40877
C         50.10773        41.55170        -0.46735
C         48.92479        42.18342        -0.80181
C         50.07536        44.42630        -0.44385
C         48.98440        43.64683        -1.16469
C         50.01585        45.81063        -0.45409
C         48.88198        46.50040        -1.20287
C         49.98361        48.75814        -0.65809
C         48.71037        47.97255        -0.89821
C         49.65136        50.09521        -0.01821
C         48.50877        50.85812        -0.51535
C         49.48592        52.92941         0.34737
C         48.38586        52.19890        -0.23967
C         51.36182        20.81002         1.10228
C         52.60332        22.80201         2.15098
C         51.56503        22.27284         1.17351
C         52.63270        24.33248         2.21185
C         51.36832        25.10226         2.05170
C         52.58474        27.27084         1.63671
C         51.45818        26.57934         2.45380
C         52.61874        28.76832         1.92659
C         51.41765        29.44813         1.93124
C         52.69081        31.69028         1.78985
C         51.38372        30.94026         1.89658
C         52.69611        33.03920         1.17010
C         51.41248        33.59368         0.70624
C         52.68740        35.78860         0.40437
C         51.40789        35.06107         0.31582
C         52.69788        37.21990        -0.06534
C         51.41483        37.96907         0.21525
C         52.55710        40.20892         0.24744
C         51.42904        39.39546        -0.24180
C         52.48096        41.57191         0.34527
C         51.28860        42.29059        -0.07961
C         52.42369        44.42243         0.43614
C         51.24342        43.69434         0.00486
C         52.28848        45.89196         0.61885
C         51.09672        46.61770         0.08877
C         52.17779        48.79600         0.77554
C         51.05643        47.99109         0.08854
C         52.14374        50.24479         0.38303
C         50.86636        50.91565         0.55688
C         50.70078        52.36580         0.59060
C         55.02594        22.91623         1.39784
C         53.93195        22.20311         1.76913
C         55.10691        24.34729         1.49836
C         53.91824        25.08173         1.98733
C         55.16378        27.22178         2.06118
C         53.89314        26.54321         1.79799
C         55.19613        28.72078         2.25552
C         53.88193        29.52410         2.36474
C         55.15284        31.59535         1.56804
C         53.96917        30.93486         1.79341
C         55.15674        33.12654         1.56044
C         53.86701        33.74990         1.07041
C         55.14818        35.92829         0.65233
C         53.87950        35.15992         0.69934
C         55.15016        37.28546         0.46845
C         53.85169        37.98928         0.52597
C         55.01751        40.25108         0.64825
C         53.76699        39.46875         0.67592
C         54.95420        41.60757         0.77340
C         53.62147        42.30146         1.03854
C         54.86596        44.55676         0.96764
C         53.61053        43.79204         0.75246
C         54.86257        46.01259         0.65622
C         53.56947        46.70225         0.78122
C         54.63320        48.82538         0.07539
C         53.50580        48.13522         0.51387
C         54.49476        50.20847        -0.25475
C         53.27408        50.87726        -0.12597
C         57.40665        24.45978         0.57493
C         56.27693        25.05758         1.20178
C         57.70567        27.19808         1.43418
C         56.41386        26.44890         1.70944
C         57.75152        28.69476         1.57860
C         56.48247        29.47423         1.97455
C         57.62889        31.53753         1.26670
C         56.42858        30.89590         1.57926
C         57.63184        32.97920         0.90073
C         56.36986        33.75139         0.88806
C         57.61264        35.93416         0.85018
C         56.43029        35.24319         0.81377
C         57.64847        37.46781         0.78829
C         56.39876        38.04052         0.05114
C         57.16862        40.37915        -0.36300
C         56.24556        39.56808         0.20829
C         57.20383        41.87664        -0.28961
C         56.28318        42.33406         0.85101
C         57.38823        44.58863         0.42460
C         56.19248        43.84723         0.89633
C         57.36681        46.09204         0.59858
C         55.99826        46.71846         0.36017
C         57.08836        48.79278        -0.35707
C         55.93013        48.13696         0.01864
C         58.54175        25.17883         0.23804
C         59.72945        27.31831        -0.01606
C         58.68858        26.55279         0.53912
C         59.81243        28.69604         0.16916
C         58.83639        29.41986         0.89079
C         60.05085        31.58314         0.68188
C         58.84724        30.83461         0.98079
C         60.13383        32.93281         0.80759
C         58.92173        33.71313         1.10927
C         60.15412        35.96929         1.03878
C         58.89349        35.23231         1.16251
C         60.18693        37.29261         0.67234
C         59.02066        38.01357         0.32795
C         59.99090        40.36634         0.37861
C         59.15400        39.37461        -0.10710
C         59.75714        41.77654         0.23391
C         58.58648        42.46192        -0.03500
C         59.72168        44.69800        -0.32613
C         58.54489        43.92749         0.04511
C         59.67960        46.05520        -0.43255
C         58.47559        46.78955        -0.14536
C         58.33301        48.10945        -0.49854
O         33.94414        21.62149        -0.20469
O         25.05850        41.59522         0.70926
O         51.02585        39.59004        -1.63035
O         30.97768        27.60462        -3.25633
O         51.95245        31.63122         3.06600
O         49.21884        21.08424        -1.66503
O         44.72785        48.14692        -3.67902
O         43.09948        29.18712         2.82542
O         34.94561        24.92258        -3.09297
O         42.40275        33.29779        -0.90048
O         27.75729        30.05584        -2.42465
O         39.12130        26.70535         2.20247
O         33.11724        48.49035        -1.17263
O         56.87627        33.16801        -0.35991
O         57.53490        29.18128         2.93363
O         40.72382        35.46700         1.71449
O         55.64391        44.26982         2.21399
O         58.89370        34.41164         2.40199
O         46.33839        25.37014         2.62100
O         51.43043        33.99584        -0.71494
O         49.90070        50.18192         1.38412
O         24.31587        31.42498        -0.80317
O         39.56449        33.23180        -1.18404
O         43.07188        19.81156        -3.15917
O         53.43884        24.70736         3.37856
O         58.22203        39.79799        -1.08614
O         41.11506        18.52388        -0.33141
O         55.29457        27.84386         3.41445
O         30.93135        33.31630         1.54151
O         26.05060        27.76133         1.03370
O         46.44449        23.73135        -1.47533
O         27.50668        45.49709         0.77715
O         32.37271        29.82696        -2.72594
O         29.75409        37.95685         1.67214
O         33.30784        39.82263        -1.73624
O         41.50266        38.87217         1.55242
O         46.57015        21.21512        -2.57114
O         57.48193        26.51373         2.70164
O         44.79971        18.87408        -0.18644
O         45.12965        43.77491        -3.18010
O         29.59579        39.98025        -1.27807
O         51.52315        22.99680        -0.06287
O         44.92066        32.42766         2.71935
O         40.51103        50.21578        -3.62447
O         45.21836        40.47381        -2.38223
O         49.28588        26.84829         3.39774
O         25.58221        46.38490         4.50177
O         27.63490        42.66873         3.07105
O         29.74710        25.46621        -3.50048
O         44.82520        25.66561        -0.55742
O         32.58269        24.24427        -0.42141
O         42.28960        23.57518        -2.02753
O         48.27076        50.24323        -2.76963
O         50.82272        37.80649         1.52431
O         32.47634        47.43458         2.17438
O         37.81431        50.35087        -2.75561
O         26.72081        40.20872        -0.72936
O         53.58472        38.58096         1.84061
O         45.72407        28.90302         0.11864
O         52.75351        46.27828         1.95309
O         35.21816        33.04701         2.12427
H         35.50056        33.94606         2.42256
O         30.31197        30.83023         1.16006
H         30.80318        31.39300         1.80614
O         28.99134        49.14946         3.80783
H         29.85545        49.60864         3.73476
O         42.68312        52.70248        -0.72299
H         41.95908        53.23570        -0.32934
O         57.62056        46.32099         2.02924
H         56.96190        45.76996         2.51715
O         25.03820        43.61969         5.08416
H         25.17458        44.54683         5.39167
O         35.18992        44.47999        -2.26806
H         35.18606        43.52912        -2.55160
O         24.66997        33.56343         2.96021
H         24.95108        32.63216         3.09152
O         49.38755        43.64455        -2.57798
H         49.31424        44.57850        -2.90375
O         46.65821        34.30298         2.87632
H         46.24470        33.60549         3.43965
O         56.53124        37.73574        -1.35481
H         57.23601        38.31969        -1.72101
O         37.39023        29.60268        -1.71303
H         36.91499        30.20367        -2.32485
O         43.17483        39.03006        -2.03330
H         43.65456        39.57466        -2.70748
O         37.36879        25.71167        -2.89930
H         36.59543        25.71773        -3.51203
O         52.21793        22.32426         3.45912
H         52.73969        22.84877         4.10848
O         49.24758        46.40121        -2.60663
H         49.79101        47.19355        -2.82843
O         25.08836        37.91187         3.18362
H         25.15685        36.95665         3.39652
O         55.30500        33.50568         2.95801
H         54.58950        33.07562         3.47416
O         29.20360        44.24882        -0.45031
H         28.26722        44.14785        -0.72363
O         51.83082        26.70586         3.82860
H         51.02628        26.54402         4.36914
O         44.19065        54.99249        -4.25969
H         44.24887        54.02639        -4.48537
O         37.02116        28.47595         1.75907
H         37.59203        27.76641         2.16888
O         23.14652        39.72248         0.69062
H         23.23745        40.64855         0.36672
O         41.31757        25.63661         2.44494
H         40.36730        25.71091         2.76177
O         39.01214        22.24100         0.95025
H         38.47679        21.43180         1.13241
O         43.47551        40.49316         1.30989
H         43.15713        39.78716         1.92417
O         56.94308        41.92066         2.06971
H         56.46633        42.34162         2.81780
O         35.24659        41.65746        -2.33286
H         34.48044        41.07641        -2.57203
O         41.31074        52.63474        -4.12977
H         40.67736        51.98832        -4.52490
O         47.23999        46.00902         0.43677
H         46.39801        45.54556         0.64000
O         26.94943        30.61571         1.50947
H         27.85982        30.24385         1.49671
O         46.36974        52.94024         0.75654
H         45.48737        53.33966         0.59807
O         44.32951        22.10551        -3.24167
H         45.23878        22.47016        -3.34861
O         41.14843        21.35563        -3.51590
H         41.94173        21.73246        -3.95692
O         52.15563        27.11958         0.24048
H         52.84408        27.49711        -0.34571
O         52.89325        37.19816        -1.50090
H         52.35477        36.47668        -1.88829
O         43.99039        52.33620        -4.13294
H         43.06675        52.23381        -4.48027
O         37.88795        44.66204         1.29821
H         38.02950        43.76408         1.66871
O         42.58288        43.77170        -3.06408
H         43.51301        43.77504        -3.45510
O         37.74215        19.82934         0.47247
H         36.87609        19.38310         0.58834
O         24.46261        37.61145        -0.45159
H         23.95547        38.45801        -0.39682
O         42.24781        48.38255        -4.08019
H         43.09864        48.41216        -4.57850
O         34.76307        30.72803         1.52043
H         35.04745        31.26231         2.30034
O         56.68394        42.42709        -1.52476
H         57.20687        42.05617        -2.26627
O         36.21449        33.75634        -1.33264
H         37.06738        33.97715        -1.76506
O         53.36216        42.20400         2.47380
H         53.99385        42.80742         2.92402
O         53.68728        29.75755         3.78278
H         53.95999        28.92799         4.24336
O         47.24981        22.38937         1.76387
H         47.62915        22.79398         2.57391
O         44.11103        44.16585         0.27878
H         43.60199        43.56581         0.86510
O         51.93589        48.77016         2.21085
H         52.03795        47.83132         2.50727
O         42.62836        23.51394         1.34410
H         42.09577        23.98235         2.04015
O         38.33413        49.11589         0.69239
H         38.36932        48.26522         1.18063
O         36.61025        35.21826         2.05008
H         36.71905        36.15069         2.33472
O         44.89292        27.39006         3.34388
H         45.02574        26.49398         3.72453
O         50.51588        49.02096        -1.99301
H         49.78114        49.52822        -2.47912
O         30.87765        44.16372         2.75631
H         31.66946        44.64883         3.07178
O         47.22835        47.88190        -3.43055
H         47.61578        48.79934        -3.54038
O         57.54999        37.93269         2.15696
H         58.16179        37.40427         2.71195
O         39.84737        28.95333         2.71187
H         39.50030        28.07448         3.06142
O         45.23514        37.79365         1.85240
H         45.92059        37.25776         2.31039
H         22.30379        26.44835         0.72981
H         22.13224        28.85847         1.13515
H         21.94114        31.05476         1.28158
H         22.04995        33.36685         1.90173
H         22.04454        35.41612         1.92845
H         22.16814        37.78891         2.48750
H         22.63029        39.64389         3.44131
H         23.18063        41.79629         4.37613
H         22.76568        43.83395         3.17221
H         22.60862        46.23328         2.93703
H         25.55511        23.52442        -1.33758
H         23.55362        24.42098        -0.27462
H         25.84463        49.89570         2.69442
H         23.77168        48.62537         2.89325
H         27.08146        22.93790        -2.55518
H         27.41225        50.89203         1.96973
H         29.09951        21.78657        -2.73327
H         29.35369        52.04702         1.07357
H         32.92272        19.48854        -2.58730
H         30.88337        20.73588        -2.80326
H         33.18558        54.22712         0.60089
H         31.15954        53.05087         1.24798
H         34.58132        18.46199        -2.32120
H         34.78110        55.14777         0.06736
H         36.72246        17.31088        -2.58542
H         36.81388        56.29158        -0.57493
H         40.65777        15.21280        -2.62374
H         38.45046        16.26416        -2.43360
H         40.49342        58.35596        -1.50525
H         38.38928        57.19015        -1.02830
H         43.14458        15.26268        -2.37209
H         42.88972        58.32002        -2.01949
H         45.16125        16.43923        -1.68598
H         44.90255        57.13545        -2.73560
H         48.91242        18.48523        -1.16654
H         46.80975        17.42219        -1.72182
H         48.10463        54.95069        -0.53456
H         46.36381        56.11674        -1.75587
H         50.21500        19.18153         0.36875
H         49.37756        54.01116         0.50279
H         52.07060        20.16205         1.63750
H         51.55975        52.99196         0.87135
H         55.92823        22.36278         1.10089
H         53.98645        21.10464         1.75664
H         55.36141        50.77391        -0.62137
H         53.21771        51.94060        -0.40192
H         57.35031        23.40725         0.26654
H         57.05940        49.85582        -0.63141
H         59.33499        24.68544        -0.34244
H         60.47737        26.81439        -0.64493
H         60.63086        29.23834        -0.32259
H         60.96668        31.02050         0.45364
H         61.10199        33.43985         0.69354
H         61.08594        35.45155         1.30153
H         61.16234        37.78909         0.55182
H         60.82827        40.07580         1.03058
H         60.61131        42.40114         0.54545
H         60.63796        44.15741        -0.60146
H         60.55389        46.60836        -0.80708
H         59.17745        48.64608        -0.95577
