         252
 CSIRO Nanostructure Databank - Neutral Graphene Oxide Data Set
C         30.63225        31.96517        -2.08307
C         30.49712        33.18744        -1.80175
C         30.48654        36.31202        -0.84602
C         30.40856        37.43503        -0.33570
C         30.33642        40.29583         1.12068
C         30.39160        41.54795         1.04662
C         33.01712        28.97574        -1.81731
C         31.98274        29.68763        -2.10295
C         32.84427        31.65378        -0.80933
C         31.56174        30.95723        -2.02774
C         32.79328        33.17681        -0.78572
C         31.53925        33.98459        -1.12783
C         32.88911        36.19049        -0.77412
C         31.62197        35.47895        -1.24149
C         32.83738        37.51552        -0.06104
C         31.50990        38.05049         0.42990
C         32.75711        40.14327         1.53471
C         31.46202        39.36350         1.13715
C         32.79704        41.63516         1.13935
C         31.48123        42.42255         1.14396
C         32.80702        44.43067         1.38304
C         31.72691        43.79146         1.26894
C         35.81631        27.52871        -1.55816
C         35.46290        28.85721        -1.32545
C         34.23224        29.52115        -1.33104
C         35.32689        31.64956        -0.71843
C         34.17605        30.97263        -1.02194
C         35.38575        33.12870        -0.74901
C         34.10507        33.92199        -0.85700
C         35.28729        36.02116        -0.25939
C         34.12102        35.38149        -0.52568
C         35.32157        37.55704        -0.29573
C         33.99952        38.15232         0.24964
C         35.34780        40.12446         1.32134
C         34.05101        39.38018         1.12139
C         35.36015        41.59772         1.69202
C         34.07850        42.37040         1.45073
C         35.33196        44.59780         1.73853
C         34.04430        43.83890         2.01630
C         35.34209        45.93077         1.10713
C         38.14205        27.45983        -1.11400
C         36.89553        26.87642        -1.52435
C         38.03995        28.86916        -0.85767
C         36.79009        29.66828        -1.23968
C         37.82798        31.68592        -0.15541
C         36.56640        30.86657        -0.31719
C         37.76402        33.13491         0.01338
C         36.61032        33.82235        -0.30302
C         37.68802        35.91285         0.51675
C         36.63279        35.33338        -0.41075
C         37.39915        37.23453         1.02033
C         36.48454        38.10025         0.51213
C         37.89933        40.29581         1.04974
C         36.58554        39.61521         0.59216
C         37.90707        41.69212         1.09256
C         36.66047        42.36869         1.54542
C         37.82528        44.56238         0.86426
C         36.66219        43.87197         1.50301
C         37.74253        45.96856         0.62991
C         36.44845        46.48497         0.91588
C         40.43913        24.51048        -0.67402
C         39.61822        25.39244        -1.03660
C         40.56472        27.54066        -0.64104
C         39.37858        26.78770        -0.97971
C         40.41497        28.89952        -0.18457
C         39.14344        29.56848        -0.34054
C         40.18975        31.71739         0.47314
C         39.01495        30.99310        -0.04702
C         40.19389        33.18855         0.38565
C         39.00774        33.87954         0.30172
C         40.21079        35.99573         1.05315
C         38.93298        35.31228         0.60734
C         40.36257        37.48791         1.01467
C         39.28385        38.28464         1.34022
C         40.36760        40.34220         0.65342
C         39.17126        39.64967         0.99919
C         40.30356        41.75229         0.49479
C         39.10240        42.43693         0.77747
C         40.17442        44.59597         0.01571
C         39.03042        43.88089         0.57742
C         40.09498        46.03176        -0.09362
C         38.88609        46.69163         0.23885
C         40.03676        48.80166         0.25234
C         38.96687        48.12283         0.15319
C         42.85462        24.43405         0.27366
C         41.84734        24.69196        -0.66174
C         42.91576        27.50179         0.17660
C         41.87008        26.96581        -0.62869
C         42.78209        28.88715         0.57641
C         41.55762        29.56128         0.33625
C         42.72658        31.74341         0.84173
C         41.45673        30.97828         0.74940
C         42.73460        33.09044         0.63239
C         41.51842        33.88612         0.20583
C         42.75971        36.05784         0.69015
C         41.50506        35.27059         0.84637
C         42.79477        37.42091         0.57726
C         41.56083        38.17416         0.64922
C         42.77345        40.22720        -0.04875
C         41.57680        39.58060         0.48795
C         42.52956        41.59301        -0.69436
C         41.58658        42.48019         0.17156
C         42.54606        44.60843        -0.82998
C         41.34098        43.88272        -0.37324
C         42.56521        46.11631        -0.77752
C         41.21571        46.88502        -0.71000
C         42.63338        48.73261         0.06273
C         41.30435        48.33586        -0.06917
C         43.73152        25.34184         0.50440
C         44.95566        27.24866         1.70681
C         43.98062        26.68723         0.70101
C         45.07669        28.80916         1.62578
C         43.90700        29.57954         1.13279
C         45.18375        31.69496         1.24547
C         43.94655        30.99766         1.13949
C         45.24920        33.10916         0.95599
C         44.03320        33.81167         0.41788
C         45.28861        35.98921         0.59759
C         44.00950        35.27905         0.80516
C         45.21489        37.34629        -0.06283
C         44.10258        38.20604         0.56139
C         45.14845        40.08106        -0.88123
C         43.95252        39.53261        -0.16982
C         45.15213        41.58711        -1.08920
C         43.84255        42.34280        -0.99150
C         45.16926        44.60791        -1.08912
C         43.84772        43.83527        -0.99492
C         45.13495        45.91170        -0.25075
C         43.86657        46.70598        -0.21328
C         43.74278        48.14673         0.01065
C         47.46504        27.40444         1.65746
C         46.39333        26.81961         1.55190
C         47.83683        28.84147         1.91945
C         46.42132        29.53918         1.69661
C         47.59446        31.58421         0.91551
C         46.41430        30.95766         1.27869
C         47.69704        33.04621         1.05341
C         46.44319        33.79305         0.91489
C         47.73267        36.01064         0.77544
C         46.52733        35.17579         0.29688
C         47.74749        37.36856         0.05194
C         46.56214        38.02646        -0.15609
C         47.70413        40.20184        -0.56257
C         46.50373        39.31232        -0.96345
C         47.72163        41.57263        -1.28321
C         46.42549        42.35466        -1.04373
C         47.69527        44.43551        -0.79678
C         46.42768        43.73056        -0.89961
C         47.47399        45.81558        -0.56144
C         46.49088        46.47998        -0.17757
C         50.35614        28.98304         1.27572
C         48.96095        29.39691         1.04507
C         49.90490        31.60968        -0.05693
C         48.76833        30.83069         0.48489
C         50.12572        32.93916         0.25129
C         49.02583        33.72971         0.87406
C         50.27267        35.86056         0.10617
C         49.05415        35.23593         0.69655
C         50.19406        37.24650        -0.46173
C         49.02549        37.96381        -0.37750
C         50.26647        40.15433        -0.95676
C         48.97866        39.39622        -0.83829
C         50.24434        41.65680        -0.89627
C         49.00568        42.32958        -0.93086
C         50.22173        44.32320        -0.67189
C         48.93443        43.75847        -0.80275
C         51.41842        29.67396         1.20512
C         52.57827        31.55835         0.61318
C         52.63550        30.29532         1.06220
C         52.61176        32.78375         0.18417
C         51.42545        33.58882         0.01118
C         52.54780        35.85316        -0.38722
C         51.47228        34.96743        -0.13196
C         52.65776        37.07358        -0.59784
C         51.46694        37.92636        -1.04160
C         52.65366        40.24615        -0.99173
C         51.53506        39.35804        -0.50443
C         52.63328        41.48657        -0.85547
C         51.50423        42.36805        -0.84237
C         51.34987        43.76053        -0.70678
O         34.88023        39.19029         2.32512
O         48.53792        29.60332        -0.31360
O         48.59702        33.36596         2.21959
O         42.57635        45.47068        -2.07300
O         44.80968        35.77366         1.95697
O         45.59511        29.34665         2.89509
O         42.15776        25.87454        -1.47128
O         40.90707        35.33887         2.17631
O         31.85072        33.61286         0.25170
O         38.23517        37.70803         2.04350
O         35.50486        37.89170        -1.65595
O         34.85348        33.61407        -2.06106
O         36.14854        41.89422         2.85665
O         33.66570        42.10651         0.06957
O         50.03683        35.86208         1.58234
O         49.60675        39.62192        -2.13217
O         40.51923        31.22673         1.85935
O         44.22760        33.79948        -1.02260
O         31.35740        38.11819         1.86750
O         44.92442        40.65103        -2.21137
O         43.69890        43.07854        -2.25213
O         32.47404        36.10737        -2.19951
O         36.29323        44.47006         2.80444
O         44.33773        45.92248         0.93554
O         41.85208        41.35579        -1.93505
H         42.51549        41.06035        -2.59519
O         47.62870        40.49859         0.84336
H         47.44345        39.67085         1.33853
O         44.46937        38.50983         1.92597
H         44.55943        37.64418         2.39721
O         48.20754        29.04674         3.25795
H         47.42664        28.87535         3.82812
O         44.79719        37.11745        -1.42828
H         45.51261        36.61749        -1.88422
O         46.69871        38.87838        -2.31474
H         46.51005        39.64482        -2.90549
O         46.62052        34.96064        -1.12658
H         45.76678        34.46528        -1.36376
O         32.31449        31.14522         0.36016
H         31.68802        31.81262         0.73305
O         36.50538        40.11968        -0.76375
H         36.16630        39.38183        -1.36558
O         50.66779        30.96316        -0.95864
H         50.27552        30.07039        -1.10576
O         40.79410        47.16933        -2.05216
H         41.22858        46.50962        -2.64654
O         44.47495        26.91811         2.99472
H         44.94503        27.48174         3.64777
O         37.01233        30.18174        -2.56434
H         37.22299        29.43714        -3.16567
O         47.50348        36.28546         2.17037
H         48.38140        36.35342         2.60900
O         47.74916        41.32890        -2.70802
H         47.75836        42.19057        -3.17409
O         51.42121        37.88949        -2.44494
H         52.03798        38.55831        -2.80908
O         37.04239        35.66962        -1.76554
H         36.55689        36.51154        -2.01816
O         36.27332        30.31206         0.99513
H         36.41583        31.00342         1.67476
O         51.56520        39.28208         0.90650
H         51.77189        40.16195         1.28326
O         32.71301        40.22069         2.96386
H         32.72160        39.30879         3.32671
O         33.85644        43.73994         3.40932
H         34.69136        44.00524         3.85928
O         41.64069        34.08167        -1.22903
H         42.62277        34.01937        -1.45515
O         42.32560        42.66674         1.42334
H         41.71516        43.03435         2.09718
O         45.28873        45.08826        -2.44580
H         44.79817        44.45607        -3.02249
