         640
 CSIRO Nanostructure Databank - Neutral Graphene Oxide Data Set
C         22.99428        27.37840        -0.01950
C         22.98560        28.75481         0.05764
C         22.98650        31.65021         0.40487
C         22.97159        33.02328         0.54905
C         22.94395        35.94988         0.63866
C         22.92844        37.34547         0.73556
C         22.86653        40.29703         0.62762
C         22.83560        41.65508         0.58663
C         22.92673        44.65316         0.61745
C         22.95602        46.02955         0.57444
C         25.42843        24.57091        -0.32355
C         24.24103        25.24801        -0.20537
C         25.43602        27.39915        -0.24452
C         24.21594        26.67269        -0.15795
C         25.42380        28.82645        -0.18040
C         24.18885        29.50770        -0.00762
C         25.39033        31.68728        -0.03922
C         24.18062        30.94979         0.11071
C         25.35084        33.10295         0.07437
C         24.15253        33.78300         0.37713
C         25.37322        35.96788         0.48943
C         24.14300        35.23919         0.49219
C         25.36571        37.38890         0.67416
C         24.11013        38.08968         0.74447
C         25.30860        40.23035         0.71660
C         24.10557        39.55062         0.67489
C         25.38572        41.65237         0.39344
C         24.04695        42.43015         0.30864
C         25.37122        44.54218         0.42385
C         24.11676        43.89321         0.48716
C         25.40581        45.96927         0.34772
C         24.18818        46.71126         0.38042
C         25.41454        48.74861        -0.10754
C         24.22042        48.11357         0.18141
C         27.97814        23.11273        -0.55627
C         27.91801        24.57442        -0.53520
C         26.67236        25.26819        -0.41698
C         27.89686        27.42198        -0.46348
C         26.67093        26.69304        -0.38036
C         27.88994        28.85590        -0.42647
C         26.65647        29.55752        -0.27865
C         27.87370        31.68539        -0.30082
C         26.64522        30.98597        -0.23770
C         27.88595        33.15956        -0.32409
C         26.57310        33.89425        -0.15187
C         27.84431        35.96818         0.41882
C         26.61567        35.29910         0.29182
C         27.83858        37.39281         0.69355
C         26.59212        38.08311         0.76956
C         27.81255        40.28924         1.00045
C         26.53582        39.52637         1.21521
C         27.84348        41.67289         0.88347
C         26.62377        42.41246         0.63322
C         27.87503        44.53176         0.50468
C         26.62142        43.80199         0.49780
C         27.88839        45.92357         0.26705
C         26.64421        46.65832         0.15762
C         27.90536        48.71180        -0.58531
C         26.63488        48.04070        -0.11511
C         27.96850        50.19777        -0.33991
C         30.39103        23.23416        -0.01464
C         29.12898        22.45601        -0.32246
C         30.38926        24.50798        -0.86201
C         29.11632        25.29323        -0.61480
C         30.36464        27.43584        -0.68329
C         29.12381        26.71210        -0.57845
C         30.34304        28.85049        -0.69861
C         29.12566        29.56960        -0.53331
C         30.32779        31.76845        -0.38246
C         29.11514        31.00864        -0.41991
C         30.35007        33.15084        -0.06832
C         29.12688        33.87723         0.01169
C         30.34832        35.92464         0.57331
C         29.10100        35.24931         0.33172
C         30.32826        37.31426         1.18097
C         29.04929        38.07562         0.92510
C         30.34733        40.26541         1.32015
C         29.03065        39.50444         1.24880
C         30.31852        41.71910         1.08604
C         29.10125        42.40615         0.91858
C         30.34282        44.54007         0.72867
C         29.10471        43.82218         0.70741
C         30.35983        45.94465         0.47372
C         29.13535        46.63796         0.20412
C         30.38968        48.71807        -0.16875
C         29.16195        48.01727        -0.11093
C         30.41352        50.14239        -0.42108
C         29.14667        50.85236        -0.35826
C         32.91229        20.36187        -0.02087
C         31.71814        21.07260         0.03893
C         32.89069        23.15900        -0.40684
C         31.67950        22.45440        -0.18684
C         32.89219        24.58887        -0.64387
C         31.65964        25.31152        -0.72029
C         32.85292        27.46127        -1.00398
C         31.60292        26.70902        -0.78429
C         32.88449        28.91807        -0.81137
C         31.59535        29.60410        -0.92584
C         32.87787        31.78469        -0.42864
C         31.59411        31.12061        -0.73165
C         32.84411        33.18673        -0.10755
C         31.60156        33.86268         0.04035
C         32.83266        36.04696         0.20610
C         31.55405        35.26249         0.36847
C         32.81793        37.43839         0.78155
C         31.59134        38.12227         0.92573
C         32.81305        40.25552         1.01378
C         31.59560        39.52159         1.07048
C         32.77221        41.68507         1.08871
C         31.56547        42.41612         1.06955
C         32.78603        44.59874         1.06618
C         31.57493        43.85898         0.97903
C         32.82484        45.96899         0.71327
C         31.60085        46.64504         0.41495
C         32.85850        48.71807        -0.09055
C         31.61622        48.02953         0.06745
C         32.86685        50.06885        -0.55845
C         31.62639        50.79844        -0.65141
C         32.85619        52.81975        -1.29743
C         31.71009        52.23298        -0.89552
C         35.43677        18.89238        -0.24534
C         35.39518        20.30863        -0.28346
C         34.13967        21.02723        -0.22539
C         35.37544        23.15455        -0.43903
C         34.12790        22.44542        -0.36684
C         35.35296        24.58624        -0.49489
C         34.14724        25.26836        -0.68081
C         35.38445        27.51118        -0.76522
C         34.16118        26.71794        -0.98860
C         35.35273        28.88228        -0.66202
C         34.08136        29.62245        -0.69388
C         35.38041        31.80590        -0.51535
C         34.07081        31.05503        -0.50124
C         35.32175        33.16609         0.15735
C         34.09767        33.88038         0.15240
C         35.29594        35.93694         0.72246
C         34.09245        35.26222         0.47552
C         35.30984        37.36383         1.21571
C         34.03374        38.12526         0.94095
C         35.31920        40.22311         1.00801
C         34.05010        39.53115         1.03036
C         35.28318        41.69847         0.97078
C         34.02659        42.40288         1.35370
C         35.33714        44.71178         1.55551
C         34.03217        43.90841         1.46337
C         35.30585        46.04739         0.85217
C         34.08434        46.68167         0.59523
C         35.32073        48.75318        -0.01436
C         34.08859        48.04805         0.14540
C         35.31778        50.11093        -0.47985
C         34.09329        50.71488        -0.83439
C         35.36204        52.75635        -1.61237
C         34.06473        51.98493        -1.64783
C         35.43933        53.98766        -2.27929
C         37.86942        18.88742        -0.47489
C         36.62731        18.20543        -0.34910
C         37.86523        20.30387        -0.50993
C         36.61992        21.02446        -0.43261
C         37.84960        23.18748        -0.89305
C         36.59859        22.44603        -0.48881
C         37.89180        24.61905        -0.43916
C         36.60607        25.36939        -0.17004
C         37.88497        27.49181        -0.44064
C         36.66338        26.72726        -0.88030
C         37.84325        28.86461        -0.23644
C         36.59091        29.61069        -0.36389
C         37.77348        31.61906         0.42204
C         36.57457        30.96360        -0.14753
C         37.74174        33.05774         0.80467
C         36.50985        33.83455         0.51001
C         37.79753        35.94925         0.79475
C         36.51906        35.22938         0.72230
C         37.75521        37.40875         0.67853
C         36.57412        38.10082         0.82242
C         37.78326        40.29599         0.80423
C         36.53018        39.55457         0.82914
C         37.79999        41.67296         1.02138
C         36.57002        42.46538         0.99730
C         37.77141        44.62187         1.04442
C         36.58960        43.92329         1.23475
C         37.77255        46.02418         0.77956
C         36.54811        46.71717         0.62834
C         37.79332        48.81868         0.09968
C         36.55806        48.09592         0.21259
C         37.78240        50.23364        -0.17664
C         36.54362        50.86620        -0.52702
C         37.70554        53.05805        -0.90322
C         36.50988        52.21207        -0.99819
C         37.79277        54.28360        -1.70064
C         36.63778        54.70370        -2.37445
C         40.33895        16.04292        -0.59814
C         39.15062        16.73350        -0.59046
C         40.34783        18.87002        -0.52030
C         39.11914        18.15808        -0.53540
C         40.34946        20.30350        -0.50516
C         39.11615        21.02322        -0.55507
C         40.34164        23.14984        -0.52926
C         39.12465        22.43635        -0.60884
C         40.34726        24.58887        -0.49248
C         39.08922        25.30684        -0.44614
C         40.32992        27.45409        -0.30566
C         39.11257        26.76245        -0.35837
C         40.32449        28.88530        -0.16153
C         39.07973        29.57717        -0.01304
C         40.29222        31.70295         0.32781
C         39.07971        30.95363         0.26085
C         40.29447        33.10385         0.58308
C         39.04906        33.78448         1.15009
C         40.28490        36.01294         1.14375
C         38.99325        35.27454         0.87641
C         40.29441        37.43370         0.63352
C         39.01278        38.12996         0.24432
C         40.23968        40.28349         0.58404
C         39.03003        39.59429         0.62679
C         40.29995        41.68290         0.82231
C         39.06881        42.37945         1.18683
C         40.31221        44.59137         0.78573
C         39.06562        43.90953         1.14232
C         40.30664        45.98431         0.56895
C         39.01195        46.64692         0.19114
C         40.26254        48.84226         0.25003
C         39.02909        48.14862         0.25903
C         40.26525        50.25943        -0.04707
C         39.02062        50.92221        -0.24988
C         40.29826        52.99161        -0.93988
C         39.04970        52.36591        -0.49767
C         40.28082        54.30864        -1.47344
C         39.05155        54.97058        -1.80774
C         40.30456        56.91921        -2.57876
C         39.10486        56.28888        -2.34084
C         42.81296        16.03239        -0.48576
C         41.58553        16.73355        -0.53914
C         42.83626        18.85636        -0.44925
C         41.59065        18.15796        -0.51266
C         42.83287        20.29987        -0.44072
C         41.59049        21.00912        -0.47752
C         42.80980        23.15617        -0.44610
C         41.57888        22.43601        -0.46982
C         42.80433        24.58127        -0.40146
C         41.56265        25.29304        -0.39822
C         42.79403        27.43344        -0.33958
C         41.58227        26.73454        -0.34245
C         42.78145        28.91670        -0.61763
C         41.52823        29.61564        -0.15560
C         42.76695        31.74319         0.06569
C         41.53224        31.01293         0.06579
C         42.75599        33.13979         0.26148
C         41.51149        33.83345         0.52653
C         42.73657        35.96582         0.61637
C         41.52743        35.25003         0.71826
C         42.74241        37.40907         0.63440
C         41.48083        38.10736         0.53972
C         42.75198        40.28955         0.55776
C         41.49408        39.56559         0.13503
C         42.74848        41.69512         0.67836
C         41.50717        42.41650         0.75112
C         42.76882        44.54824         0.67307
C         41.52152        43.84757         0.76903
C         42.78051        46.01300         0.62804
C         41.50845        46.72170         0.57127
C         42.73264        48.89750         0.67978
C         41.48830        48.13894         0.46978
C         42.74764        50.35919         0.24211
C         41.48652        50.96640        -0.21496
C         42.77733        52.94846        -0.98196
C         41.51715        52.29044        -0.73852
C         42.76977        54.27157        -1.52067
C         41.52999        54.94395        -1.77528
C         42.77538        56.88542        -2.62469
C         41.53591        56.25363        -2.32767
C         44.01270        16.72236        -0.38854
C         45.36097        18.84527        -0.14266
C         44.04771        18.12921        -0.38280
C         45.31604        20.32471        -0.44288
C         44.06422        21.01342        -0.44913
C         45.26344        23.17293        -0.49917
C         44.04456        22.44565        -0.48054
C         45.24449        24.57541        -0.37145
C         44.03482        25.29373        -0.32158
C         45.26121        27.46002        -0.23748
C         44.03731        26.74344        -0.28366
C         45.26617        28.91694        -0.20121
C         44.04502        29.63059        -0.22783
C         45.26057        31.73840         0.02345
C         44.02669        31.03104        -0.06364
C         45.25821        33.16856         0.11957
C         43.99509        33.87319         0.23052
C         45.19654        36.04730         0.23135
C         43.96503        35.26849         0.37599
C         45.20676        37.46851         0.61442
C         43.95772        38.14110         0.62364
C         45.19861        40.28260         0.83641
C         43.95780        39.58115         0.68745
C         45.19850        41.69632         0.88867
C         43.97370        42.41222         0.81428
C         45.25247        44.60550         0.95825
C         43.96259        43.83890         0.78370
C         45.21453        45.91116         0.16607
C         43.96963        46.69507         0.51776
C         45.28614        48.87188         0.32056
C         44.06140        48.15440         0.87594
C         45.25044        50.27444         0.09724
C         44.03721        50.98806        -0.09750
C         45.24015        53.00301        -0.91610
C         44.02149        52.31124        -0.66235
C         45.24152        54.27658        -1.52068
C         43.99891        54.93123        -1.82483
C         43.96534        56.24157        -2.38309
C         47.70611        18.89229        -0.99300
C         46.56717        18.19892        -0.78259
C         47.78093        20.33211        -0.78968
C         46.52619        21.02570        -0.58671
C         47.71777        23.16531        -0.77310
C         46.52236        22.46336        -0.62262
C         47.65583        24.65486        -0.99057
C         46.55669        25.26989        -0.13961
C         47.72174        27.44675        -0.33166
C         46.50488        26.77118        -0.27434
C         47.78014        28.87867         0.11507
C         46.48610        29.61976        -0.09283
C         47.75714        31.73642         0.03989
C         46.49697        31.02799        -0.01666
C         47.74298        33.15655         0.18227
C         46.49082        33.84403         0.18083
C         47.74909        35.99678         0.54468
C         46.52122        35.30775         0.14943
C         47.67254        37.37878         1.12999
C         46.42142        38.15350         0.79361
C         47.68530        40.28179         0.99976
C         46.43619        39.56095         0.88835
C         47.68926        41.66935         0.97360
C         46.45882        42.41382         0.86957
C         47.70207        44.44567         0.11719
C         46.47130        43.78264         0.66437
C         47.68950        45.95755         0.23153
C         46.51002        46.67768         0.27746
C         47.75255        48.77709         0.01732
C         46.50844        48.12935         0.23856
C         47.82217        50.24680        -0.03074
C         46.53111        51.02801         0.05317
C         47.77836        52.97086        -1.04397
C         46.53284        52.51641        -0.29775
C         47.69983        54.23874        -1.66759
C         46.49839        54.89179        -1.84535
C         50.27192        20.42336        -1.15196
C         48.98334        21.04698        -0.86976
C         50.18155        23.22662        -0.78665
C         48.97207        22.49355        -0.79933
C         50.20812        24.65045        -0.90752
C         48.97063        25.37313        -0.82235
C         50.14330        27.53184        -0.94714
C         48.94223        26.74745        -0.60679
C         50.17721        28.97938        -0.64623
C         49.01052        29.63863        -0.31295
C         50.22852        31.78542        -0.17619
C         48.99140        31.06316        -0.14023
C         50.22178        33.20612         0.13973
C         48.96652        33.87725         0.28779
C         50.19337        36.00163         0.76936
C         48.95115        35.29446         0.55956
C         50.18556        37.42234         0.92776
C         48.95392        38.15197         0.97642
C         50.19109        40.26590         1.04246
C         48.94613        39.54382         1.03384
C         50.21237        41.68473         1.06649
C         48.93575        42.45397         1.29044
C         50.14870        44.50156         0.57526
C         48.96954        43.81903         0.65475
C         50.15216        45.89327         0.20496
C         48.96465        46.62184         0.12723
C         50.17985        48.72163        -0.38546
C         48.97052        48.05941        -0.05529
C         50.21256        50.10278        -0.73469
C         49.03825        50.88202        -0.58247
C         50.24132        52.83462        -1.42881
C         49.00232        52.24655        -0.99290
C         51.43214        21.10506        -1.02805
C         52.71142        23.28025        -0.57814
C         51.43627        22.48524        -0.40998
C         52.69396        24.66863        -0.81355
C         51.44759        25.34408        -0.99591
C         52.71914        27.57287        -1.45200
C         51.41786        26.79177        -1.28208
C         52.64396        28.99275        -0.90056
C         51.44671        29.67535        -0.67627
C         52.69512        31.78847        -0.20756
C         51.44008        31.09957        -0.39922
C         52.71663        33.29911        -0.14895
C         51.42221        33.91614         0.30587
C         52.65934        35.99808         0.86590
C         51.42809        35.30388         0.65584
C         52.65643        37.40555         1.06983
C         51.41827        38.12484         1.00213
C         52.66075        40.25410         1.10010
C         51.42417        39.54918         1.05836
C         52.65146        41.66656         1.02448
C         51.42231        42.37732         1.01812
C         52.66060        44.45673         0.36719
C         51.44487        43.89215         1.07936
C         52.64820        45.73193        -0.11505
C         51.47183        46.62089         0.22351
C         52.65306        48.53148        -1.07021
C         51.37460        47.88574        -0.59655
C         52.66469        49.99527        -1.21093
C         51.45346        50.72440        -1.15404
C         51.40902        52.12313        -1.46217
C         55.12888        23.31226        -0.27946
C         53.93658        22.62267        -0.31988
C         55.19036        24.71818        -0.51985
C         53.94756        25.42873        -0.82392
C         55.21849        27.54419        -1.12285
C         53.94608        26.80661        -0.99110
C         55.23920        29.04143        -0.93602
C         53.90844        29.73939        -0.80883
C         55.08827        31.62557         0.47405
C         53.87471        31.09200        -0.23314
C         55.08570        33.12462         0.61312
C         53.94776        33.87407         0.51080
C         55.08058        35.94179         1.27273
C         53.92505        35.28793         0.87983
C         55.05753        37.35422         1.81282
C         53.86522        38.11601         1.31469
C         55.15053        40.20094         1.35209
C         53.90483        39.52318         1.25521
C         55.18184        41.71434         1.29982
C         53.89808        42.37327         0.86023
C         55.12901        44.30994        -0.02979
C         53.88944        43.67131         0.37986
C         55.12732        45.60032        -0.53958
C         53.82497        46.26694        -0.91388
C         55.11824        48.43631        -1.10181
C         53.91343        47.77994        -0.93857
C         55.10947        49.87074        -1.27218
C         53.94994        50.60470        -1.32559
C         57.61373        24.82373         0.14147
C         56.41861        25.40035        -0.42984
C         57.73292        27.56794        -0.57307
C         56.50603        26.79927        -0.86697
C         57.70819        28.94517        -0.33443
C         56.46077        29.68876        -0.35901
C         57.62896        31.68205         0.48782
C         56.41921        31.00145         0.09421
C         57.60032        33.01552         0.99024
C         56.30664        33.69775         1.20848
C         57.57979        35.87499         1.72692
C         56.30277        35.17116         1.51818
C         57.57134        37.27540         2.01682
C         56.38669        38.10010         1.76927
C         57.60134        40.34657         1.57838
C         56.37725        39.50835         1.61435
C         57.62984        41.57125         0.83269
C         56.38673        42.25554         0.57053
C         57.55900        44.10918        -0.57748
C         56.35078        43.52883         0.03049
C         57.57829        45.55272        -0.86071
C         56.36239        46.28249        -0.85372
C         57.60360        48.29560        -1.44368
C         56.37505        47.67794        -1.13469
C         58.81565        25.45179         0.09239
C         60.19332        27.52561        -0.14473
C         59.00161        26.76721        -0.63998
C         60.13834        28.84823         0.14003
C         58.92198        29.61967         0.03749
C         60.07113        31.72778         0.69980
C         58.88585        31.00176         0.38593
C         60.02197        33.02798         1.14585
C         58.78244        33.69967         1.33684
C         59.93032        35.67841         2.33410
C         58.75921        35.09021         1.80858
C         59.90122        36.98443         2.80404
C         58.74957        37.76242         2.63819
C         59.97399        40.73307         2.13412
C         58.77111        40.02657         2.27892
C         60.03386        41.79654         1.24246
C         58.87049        42.22902         0.58260
C         60.11823        44.23794        -0.44237
C         58.90510        43.40868        -0.30593
C         60.06034        45.50703        -0.91219
C         58.80576        46.20574        -1.11322
C         58.79492        47.58079        -1.42795
O         24.75674        41.98651        -0.89047
O         29.66958        39.82568         2.57200
O         35.80865        42.22153        -0.30383
O         45.87767        35.86134        -1.07072
O         27.16619        33.71475        -1.48951
O         51.72007        47.80274        -2.01579
O         33.51371        27.04074        -2.27355
O         56.02940        27.05796        -2.24867
O         31.54819        30.51858        -2.07709
O         56.10637        34.14436         2.60639
O         38.26806        53.16700         0.43956
O         37.46884        32.03293         1.84431
O         39.17521        43.18388         2.42019
O         47.34411        50.82395         1.26367
O         42.62169        49.96490         1.67716
O         58.76191        39.01265         3.25171
O         58.19317        43.24505        -1.57339
O         50.49742        27.19388        -2.35923
O         54.71421        29.75971        -2.09238
O         33.95273        43.05753         2.67197
O         39.00559        38.10963        -1.23932
H         38.17497        38.54166        -1.53481
O         47.27446        24.85742        -2.38408
H         48.03852        24.61456        -2.94773
O         52.93575        27.72914        -2.88228
H         52.04371        27.83095        -3.28916
O         38.90038        46.35525        -1.27153
H         38.08186        46.79461        -1.58999
O         36.54519        25.65524         1.25865
H         36.52594        24.80168         1.73964
O         45.58318        18.73851         1.31408
H         46.40994        19.22663         1.51570
O         26.38761        39.47421         2.69034
H         27.25931        39.21450         3.06167
O         51.68966        47.05737         1.60227
H         51.68295        46.24142         2.16330
O         48.90099        42.72027         2.75115
H         48.82118        41.85258         3.20331
O         54.80310        37.16768         3.27032
H         55.41308        36.46283         3.58154
O         46.91515        25.01308         1.25663
H         46.15054        25.26505         1.81533
O         27.88956        48.55139        -2.05324
H         28.71688        48.95148        -2.39615
O         33.88553        51.57035        -3.04907
H         33.05000        51.05866        -3.09526
O         46.60321        53.24524         0.97467
H         47.12755        52.67362         1.58548
O         54.89808        31.14833         1.86897
H         55.38484        31.76222         2.46268
O         30.34243        23.64652         1.38017
H         30.32021        22.83901         1.93430
O         35.47613        45.08349         2.96849
H         35.16445        44.31034         3.49421
O         36.82487        26.39576        -2.29460
H         36.66662        27.20727        -2.82203
O         45.35192        44.96791         2.36833
H         45.33635        44.14545         2.90068
O         30.36037        24.06852        -2.25169
H         30.46635        24.85881        -2.82179
O         47.69623        44.14265        -1.32688
H         48.48129        44.58103        -1.71895
O         47.93938        28.79383         1.58987
H         47.18140        28.27440         1.93375
O         40.37207        36.13196         2.60828
H         40.12928        35.24630         2.97613
O         52.84102        33.70204        -1.56429
H         52.07621        33.32474        -2.04918
O         59.24849        26.44185        -2.05407
H         58.37619        26.28531        -2.47726
O         35.34710        37.26585         2.68349
H         36.17340        36.79663         2.92815
O         37.76971        23.29233        -2.37378
H         37.29454        24.12861        -2.58521
O         41.47086        39.59996        -1.32757
H         40.67941        39.07501        -1.60518
O         39.21853        33.67795         2.60544
H         38.72539        32.86040         2.87143
O         55.36230        42.14665         2.70364
H         54.58259        41.83223         3.20918
O         51.34284        22.26178         1.05023
H         50.48534        21.81472         1.21794
O         51.53427        44.28094         2.49080
H         50.71889        43.93196         2.92361
O         42.73801        29.00668        -2.09635
H         42.78004        29.95806        -2.33241
O         45.07318        45.52858        -1.23309
H         45.22319        46.31952        -1.79036
O         47.53978        37.13585         2.59470
H         48.37273        36.71124         2.89442
O         53.58200        45.86175        -2.30681
H         52.81379        46.40264        -2.61687
O         32.89133        36.30712        -1.25440
H         32.81514        35.44085        -1.70951
O         35.61597        32.14149        -1.94307
H         34.74995        32.37828        -2.33925
O         30.33904        37.09267         2.63978
H         30.24124        37.98785         3.04914
O         44.31008        48.13822         2.31707
H         43.96667        48.99476         2.66571
H         22.05140        26.81542         0.03325
H         22.02082        29.26677         0.16589
H         22.04530        31.10328         0.54358
H         22.02328        33.51681         0.79756
H         21.98181        35.42145         0.64251
H         21.95376        37.84697         0.79879
H         21.92014        39.75760         0.76987
H         21.88153        42.17777         0.74225
H         21.96021        44.13958         0.70811
H         22.02351        46.60841         0.63454
H         25.41498        23.47334        -0.34580
H         23.29212        24.69667        -0.13704
H         25.39652        49.82209        -0.33698
H         23.27988        48.68235         0.20076
H         27.05851        22.54066        -0.74371
H         27.03846        50.77923        -0.27705
H         29.13235        21.35659        -0.31069
H         29.15522        51.94856        -0.27651
H         32.88258        19.27454         0.12580
H         30.79202        20.51975         0.24900
H         32.88892        53.90630        -1.46618
H         30.81931        52.85384        -0.72346
H         34.50772        18.31592        -0.14575
H         34.55265        54.36794        -2.80497
H         36.60145        17.10865        -0.31573
H         36.65814        55.61287        -2.99063
H         40.33973        14.94406        -0.63820
H         38.21225        16.16508        -0.63261
H         40.32306        57.94202        -2.98145
H         38.16937        56.82404        -2.55260
H         42.80662        14.93299        -0.49223
H         42.76991        57.89914        -3.05020
H         44.94703        16.15141        -0.29916
H         44.90112        56.76340        -2.62010
H         48.59367        18.36537        -1.37271
H         46.55885        17.11495        -0.96732
H         48.60674        54.71382        -2.06604
H         46.51406        55.87498        -2.33198
H         50.29100        19.38458        -1.51306
H         50.26891        53.89527        -1.70963
H         52.38621        20.61320        -1.26873
H         52.32791        52.63338        -1.78146
H         56.05519        22.76013        -0.07295
H         53.93340        21.54268        -0.11725
H         56.06473        50.40550        -1.35545
H         54.02437        51.69508        -1.43855
H         57.54564        23.84635         0.64142
H         57.63854        49.36477        -1.69110
H         59.69977        24.97493         0.54167
H         61.14367        26.97957        -0.05093
H         61.05380        29.34812         0.48593
H         61.05336        31.25428         0.57391
H         60.96804        33.54531         1.35083
H         60.85027        35.09281         2.45336
H         60.77339        37.41924         3.30864
H         60.85625        40.42714         2.71023
H         60.98766        42.31870         1.09194
H         61.09623        43.80128        -0.19411
H         60.98917        46.08072        -1.04993
H         59.74389        48.09282        -1.64235
