         276
 CSIRO Nanostructure Databank - Neutral Graphene Oxide Data Set
C        -10.84851         0.46874        -0.05409
C         -9.92742         1.48242        -0.74867
C         -8.55820         0.82005        -1.02350
C         -7.27340         1.55639        -0.63792
C         -5.97624         0.80777        -0.67258
C         -4.73988         1.35281        -0.01371
C         -3.41520         0.74099        -0.42798
C         -2.26731         1.42541        -0.13788
C         -1.01766         0.69653         0.20913
C          0.23884         1.44706         0.60391
C          1.48295         0.65337         1.06127
C          2.54263         1.36839         1.94447
C          3.94884         0.64768         1.80288
C          5.19605         1.44120         1.46035
C          6.51099         0.77235         0.95695
C          6.93271         1.25394        -0.44611
C          7.95679         0.48462        -1.22099
C          8.68211         1.15071        -2.39914
C          9.84623         0.32639        -2.91303
C         -9.83102         2.74134         0.15287
C         -8.57061         3.58490         0.09588
C         -7.29277         2.89193         0.00916
C         -6.10554         3.53806         0.30073
C         -4.80843         2.85073        -0.00452
C         -3.54050         3.61513        -0.14976
C         -2.17616         2.92101        -0.37832
C         -1.10844         3.61199         0.47316
C          0.07907         2.88251         1.03114
C          1.29352         3.64359         1.54481
C          2.62600         2.90303         1.70602
C          3.89464         3.70143         1.51671
C          5.24791         2.99280         1.37625
C          5.95748         3.54307         0.14705
C          6.82523         2.72336        -0.74487
C          7.95137         3.39693        -1.47071
C          9.11867         2.56522        -1.97561
C         -8.61456         4.92359         0.31898
C         -7.39370         5.75321         0.63257
C         -6.08373         4.98302         0.44923
C         -4.90354         5.67675         0.35600
C         -3.55698         4.98042         0.51696
C         -2.33745         5.80162         0.19637
C         -0.97995         5.10756         0.19519
C         -0.11513         5.83062         1.23501
C          1.25942         5.14958         1.48381
C          2.51634         5.84235         0.92091
C          3.83316         5.14465         1.17695
C          5.07919         5.84421         0.80750
C          6.21174         5.02059         0.24822
C          7.19246         5.64355        -0.70323
C          8.03111         4.74582        -1.53666
C         -7.37132         7.09169        -0.06919
C         -6.22171         7.94622         0.06713
C         -4.89936         7.14993         0.25875
C         -3.67613         7.64776        -0.48325
C         -2.38655         7.14996         0.08268
C         -1.13850         7.98498         0.08456
C         -0.02698         7.32444         0.90619
C          1.24115         8.09938         0.92049
C          2.54856         7.37517         1.08989
C          3.79195         8.11152         0.68904
C          5.06776         7.32615         0.47290
C          6.04264         7.84819        -0.52623
C          7.01600         7.05836        -1.07038
C         -6.09290         9.26898        -0.60279
C         -5.06602        10.14449        -0.50043
C         -3.85355        10.00902         0.35806
C         -2.57352        10.04097        -0.16159
C         -1.34971         9.49547         0.55512
C         -0.00711        10.15031         0.22112
C          1.18604         9.49026         0.35541
C          2.43983        10.08433        -0.05733
C          3.64964         9.44030         0.02931
C          4.81121         9.98719        -0.63935
C          5.90710         9.23576        -0.93140
C        -10.83657        -0.84859        -0.30197
C         -9.93105        -1.37416        -1.40021
C         -8.53638        -0.68150        -1.18473
C         -7.36345        -1.26198        -0.35591
C         -6.02095        -0.69203        -0.84380
C         -4.93079        -1.41934        -0.01121
C         -3.74315        -0.52541         0.32605
C         -2.57205        -1.31981         0.88970
C         -1.20872        -0.69532         0.76822
C          0.00706        -1.42342         1.22618
C          1.01459        -0.63534         1.71072
C          2.87964        -1.68363         1.85561
C          3.99932        -0.83957         1.57169
C          5.17376        -1.51139         1.13126
C          6.46617        -0.77673         0.97674
C          7.58983        -1.48213         0.28121
C          8.57262        -0.70355        -0.53951
C          9.68504        -1.45675        -1.19247
C         10.26410        -0.84931        -2.41888
C         -9.89009        -2.87775        -1.65458
C         -9.06155        -3.79355        -1.05523
C         -7.19638        -2.75133        -0.31764
C         -6.08810        -3.45980        -0.63814
C         -4.69775        -2.79962        -0.63504
C         -3.69857        -3.60881         0.21304
C         -2.73624        -2.85621         1.16248
C         -1.36634        -3.61838         1.36520
C         -0.03658        -2.87247         1.54526
C          1.32907        -3.63068         1.49713
C          2.63093        -2.92367         1.29172
C          3.81484        -3.61909         0.65956
C          5.11500        -2.88502         0.88613
C          6.26494        -3.63331         0.31661
C          7.47044        -2.91179        -0.12947
C          8.72541        -3.65113        -0.45213
C          9.78297        -2.92087        -0.97416
C         -8.71160        -5.12269        -1.43385
C         -7.44647        -5.71290        -1.10784
C         -6.10402        -4.91019        -1.07401
C         -5.04628        -5.70186        -0.25340
C         -3.73568        -4.96265         0.12295
C         -2.65226        -5.86132         0.74326
C         -1.35013        -5.11288         1.14427
C         -0.01795        -5.85637         1.08571
C          1.27467        -5.06790         1.02375
C          2.57371        -5.80336         0.81607
C          3.83219        -5.06985         1.28748
C          5.16000        -5.82453         1.07367
C          6.38874        -5.08832         0.62245
C          7.57646        -5.81707         0.08758
C          8.70147        -5.07028        -0.36502
C         -7.39219        -7.10102        -1.08761
C         -6.12856        -7.85654        -1.12751
C         -4.87380        -7.09068        -0.86796
C         -3.56552        -7.80061        -0.73857
C         -2.39426        -7.06357        -0.16884
C         -1.13281        -7.87451        -0.06859
C          0.06203        -7.26995         0.59057
C          1.37751        -7.90154         0.11589
C          2.58261        -7.33217         0.90270
C          3.88916        -7.96122         0.37437
C          5.15378        -7.32368         0.93628
C          6.40894        -8.01733         0.45924
C          7.57381        -7.20687         0.07905
C         -6.04609        -9.32762        -1.01057
C         -4.85925        -9.96240        -0.86271
C         -3.56469        -9.28966        -0.75126
C         -2.44572       -10.01813        -0.44741
C         -1.12660        -9.38334        -0.27609
C          0.09918       -10.10144         0.10853
C          1.34084        -9.43129         0.19602
C          2.54719       -10.12559         0.25974
C          3.87762        -9.50094         0.61841
C          5.09192       -10.05928        -0.10870
C          6.24725        -9.37026        -0.14829
O         -0.04770        -7.00176         2.01855
O          5.61390         6.86824         1.73944
O         -8.36966        -3.38793         0.10352
O          1.17405         4.47753         2.75346
O          9.90376        -0.58290         0.00629
O         -2.68379        -6.95018        -1.58592
O          6.14390        -5.35629         2.04703
O          5.45800         3.12954        -1.15384
O         -8.28512         0.17431        -2.32439
O          0.39802         8.01264         2.12525
O         -4.35981         3.41620        -1.32439
O         -3.73219         7.97671        -1.66577
O         -0.00448         1.06257        -0.79453
O          1.87283        -5.22087        -0.30347
O         -1.52466        -4.55269         2.47743
O          0.65126        -3.32873         2.73666
O         -4.50922         0.53125         1.25406
O          6.52278         0.32027        -1.49469
O         -2.03728        -0.59980         2.02704
O         -5.48724         7.84963         1.36282
O         -0.82875        -8.42962        -1.38089
O          1.87504        -1.15025         2.67151
O         -1.11410         3.14350         1.84402
O         -6.36377         1.58265        -1.82492
O          6.42478        -3.25103        -1.12248
O          7.51459         5.40564         0.73657
O          3.34310         3.44390         2.87106
O          4.90124         1.05417         2.84221
O          3.36774         8.00886         2.09378
O          5.97694        -8.00157         1.90474
O          7.59246        -1.32754         1.73072
O         -5.29808        -7.31203        -2.25978
O         -5.69855        -4.79167        -2.46187
H         -5.55855        -5.70706        -2.81963
O          4.03430        -9.82522         2.01893
H          4.79885        -9.29802         2.36085
O         -4.07569        -2.70742        -1.92025
H         -4.50158        -3.39105        -2.49652
O          4.08133        -7.70925        -1.03226
H          3.20634        -7.68928        -1.49478
O         -5.68115        -5.93018         1.03193
H         -4.97264        -6.17447         1.67968
O          2.27027         5.67361        -0.53091
H          3.06418         5.96326        -1.02854
O         -0.66276         8.05123        -1.28041
H         -1.44642         8.11996        -1.86915
O          1.53895        -7.53323        -1.26952
H          0.76959        -7.90351        -1.77188
O         -3.39504        -2.92853         2.43700
H         -2.92406        -2.31752         3.04582
O          6.04591         3.42888         2.48482
H          5.52823         3.25048         3.30054
O          2.09603         1.24939         3.29123
H          2.68646         1.80624         3.84697
O          3.68240        -3.71682        -0.77896
H          4.48498        -3.34872        -1.21222
O         -7.66971        -0.77111         0.97787
H         -7.81302        -1.54497         1.56375
O          3.67417        -4.92888         2.70710
H          4.57217        -4.89537         3.11023
O          7.55332         1.22045         1.82214
H          7.34649         0.92500         2.73381
O          7.76658         1.31277        -3.49779
H          6.88530         0.98272        -3.19952
O         -5.44359        -1.77440         1.29199
H         -5.41364        -0.97106         1.86199
O          2.51198        -7.69775         2.28161
H          1.64123        -7.40934         2.64593
O         -1.83888         3.13642        -1.76830
H         -2.67358         3.01278        -2.28043
O         -3.43798         4.70684         1.94487
H         -2.58136         5.08425         2.28419
O         -0.36611         5.26498        -1.08761
H         -0.81203         4.64946        -1.72031
O         -0.89482         5.77487         2.45231
H         -0.37982         5.23309         3.10416
O        -10.48910        -0.82246        -2.62221
H         -9.78269        -0.83890        -3.30480
O        -10.52749         1.88598        -1.98550
H        -10.66037         1.05510        -2.50778
O         -9.90759         2.29374         1.51817
H         -9.74400         3.06050         2.10567
O         10.05605         2.42453        -0.90817
H         10.19343         3.29332        -0.47847
O         -5.85832        -0.99278        -2.23038
H         -6.32003        -0.27435        -2.72653
O         -3.18229        -6.43184         1.96754
H         -2.92555        -5.80690         2.69145
O         -7.47608         6.02536         2.07661
H         -6.74228         6.65340         2.28619
O         -4.12232         9.92756         1.67161
H         -3.26900         9.82065         2.16523
O         -1.58444         9.59761         1.96680
H         -0.81019         9.19395         2.43756
O          2.22631         0.26838        -0.12186
H          1.58915         0.22957        -0.87778
H         11.08782        -1.38815        -2.91280
H         10.32857         0.72551        -3.81870
H          9.59923         3.09357        -2.84840
H          8.86214         5.20897        -2.09435
H          7.68863         7.48103        -1.83264
H          6.72498         9.67229        -1.52325
H          4.74711        11.02161        -1.00802
H          2.39922        11.06589        -0.55477
H          0.00242        11.18860        -0.14662
H         -2.48870        10.11301        -1.25603
H         -5.10103        11.03246        -1.15344
H         -6.90609         9.51076        -1.30592
H         -8.16819         7.36622        -0.77514
H         -9.59028         5.42891         0.39726
H        -10.72170         3.39231        -0.07398
H        -11.55814         0.86898         0.68543
H        -11.52790        -1.52983         0.21576
H        -10.43969        -3.20000        -2.55210
H         -9.44454        -5.74131        -1.97675
H         -8.33195        -7.67206        -1.14873
H         -6.97888        -9.90919        -1.04936
H         -4.84511       -11.06089        -0.79424
H         -2.51947       -11.11173        -0.34837
H          0.06547       -11.19563         0.21657
H          2.50954       -11.22755         0.24801
H          5.03768       -11.06512        -0.55333
H          7.12824        -9.79802        -0.65301
H          8.43578        -7.73069        -0.36399
H          9.59557        -5.62749        -0.68398
H         10.68548        -3.44323        -1.32748
