         294
 CSIRO Nanostructure Databank - Neutral Graphene Oxide Data Set
C          1.15056         2.06175        -0.05422
C          1.14161         3.44496        -0.24745
C          2.33577         1.40298         0.26825
C          2.30713         4.20762        -0.07871
C          1.00967         6.46555        -0.41647
C          0.76207         7.80392        -0.39889
C          2.33038         5.68900        -0.51519
C          1.77505         8.77998        -0.00573
C          1.11690        10.88961        -1.09366
C          1.09559        12.22534        -0.90190
C          2.12500        10.04627        -0.44038
C          2.18301        12.84799        -0.04024
C          1.08224        15.14751        -0.20572
C          1.07365        16.50043        -0.02293
C          2.28167        14.36979        -0.12056
C          2.31449        17.25372         0.35348
C          2.40933        18.62983        -0.28483
C          3.52630         2.12815         0.43696
C          3.50668         3.52530         0.25594
C          4.79964         1.33568         0.69856
C          4.73470         4.32527         0.64505
C          3.61024         6.38710        -0.07923
C          3.67520         7.64936         0.38267
C          4.88971         5.58375        -0.23649
C          4.86029         8.55311         0.46444
C          3.47752        10.64153        -0.29907
C          3.47166        12.14214        -0.45353
C          4.68372         9.96975        -0.17667
C          4.73696        12.91684        -0.45936
C          3.51822        15.05810         0.03312
C          3.55988        16.44214         0.15951
C          4.79898        14.27162         0.22280
C          4.84773        17.20585         0.27837
C          3.56690        19.18742        -0.66361
C          4.86412        18.41621        -0.70240
C          5.96860         2.13842         1.30630
C          6.05969         3.49761         0.59516
C          7.30959         1.41784         1.12918
C          7.20897         4.34138         1.23171
C          6.13194         6.35269         0.20333
C          6.07895         7.82643        -0.13333
C          7.27243         5.71304         0.55591
C          7.34318         8.61615         0.27625
C          5.98800        10.68008        -0.51201
C          6.03135        12.18195        -0.60718
C          7.32575         9.98689        -0.38303
C          7.33113        12.90726        -0.46855
C          6.05101        15.05354        -0.11731
C          6.07291        16.39665        -0.02872
C          7.37623        14.33503         0.02858
C          7.37470        17.13735         0.17930
C          6.10603        19.23122        -0.44554
C          7.31308        18.61407        -0.17754
C          8.49941         2.06232         1.13796
C          8.54124         3.54721         1.27185
C          9.80565         1.26345         1.02356
C          9.83652         4.25942         1.05282
C          8.58191         6.45383         0.75252
C          8.58177         7.78891        -0.04360
C          9.79045         5.58280         0.29929
C          9.83292         8.59340         0.20969
C          8.60859        10.73195        -0.29247
C          8.61486        12.15900        -0.38834
C          9.82586        10.02771        -0.17784
C          9.79093        12.85980        -0.55541
C          8.55114        15.09208        -0.57120
C          8.56751        16.44575        -0.44804
C          9.76988        14.30735        -0.87994
C          9.77879        17.25994        -0.71060
C          8.54113        19.32832        -0.08803
C          9.79495        18.66502        -0.20164
C         11.07131         2.03500         0.65788
C         11.11513         3.48115         0.92836
C         12.21848         1.40946         0.23312
C         12.37265         4.23534         0.61309
C         11.11028         6.34945         0.29969
C         11.10797         7.83544         0.20981
C         12.31259         5.69655         0.33133
C         12.32192         8.49093        -0.40209
C         11.06130        10.69314        -0.29304
C         11.07813        12.11397        -0.77693
C         12.31012        10.00471        -0.28789
C         12.30834        12.86069        -0.31344
C         11.09551        15.03737        -0.95201
C         11.09611        16.54269        -0.93954
C         12.26116        14.34405        -0.30241
C         12.40028        17.28280        -0.70643
C         10.99826        19.29837         0.07058
C         12.31884        18.69883        -0.18209
C         13.47305         2.10399         0.01055
C         13.54503         3.47654         0.15305
C         14.72575         1.36291        -0.45897
C         14.77779         4.22791        -0.01400
C         13.58577         6.39086         0.19004
C         13.59242         7.91266         0.23624
C         14.75885         5.68125         0.07612
C         14.78809         8.52725        -0.46687
C         13.50866        10.72118        -0.31849
C         13.48685        12.16179        -0.19335
C         14.82591        10.04848        -0.67044
C         14.81592        12.88914        -0.14986
C         13.50123        15.10930         0.01893
C         13.70160        16.45778        -0.67049
C         14.70014        14.28383         0.44292
C         14.99266        17.23222        -0.16925
C         13.52871        19.27493         0.41480
C         14.76149        18.65329         0.36259
C         16.00762         2.05601         0.05137
C         15.96848         3.54775        -0.19998
C         17.30428         1.40753        -0.39699
C         17.18006         4.27431        -0.47664
C         16.08370         6.40219         0.22088
C         16.06868         7.79645        -0.38698
C         17.24110         5.63128        -0.36062
C         17.31741         8.57205        -0.23752
C         16.05129        10.65633        -0.00573
C         15.95030        12.06566         0.44812
C         17.23676         9.92878         0.15007
C         17.20925        12.78207         0.84657
C         15.89742        15.00445         0.96706
C         15.82612        16.54156         1.01165
C         17.24191        14.28256         1.21953
C         17.18036        17.22726         0.92735
C         15.92841        19.31716         0.81530
C         17.18261        18.63074         0.89004
C         18.40822         2.09578        -0.77975
C         18.32355         3.57162        -1.15061
C         19.71336         1.47667        -0.99375
C         19.64087         4.26295        -0.95787
C         18.54279         6.33255        -0.47715
C         18.57775         7.82810        -0.27226
C         19.75853         5.45774        -0.06011
C         19.77675         8.42768         0.43636
C         18.48720        10.60205         0.73025
C         18.48965        12.08783         0.34169
C         19.75977         9.92676         0.27221
C         19.76189        12.82608         0.80388
C         18.43002        15.03637         0.64913
C         18.49775        16.50371         1.05461
C         19.70520        14.30139         0.38266
C         19.62444        17.26318         0.37406
C         18.42181        19.35913         0.90665
C         19.64331        18.72349         0.64578
C         20.81124         2.17019        -1.36705
C         20.78526         3.65923        -1.70675
C         22.10226         4.34954        -1.46454
C         21.08440         6.23200        -0.19096
C         21.08821         7.73381         0.02318
C         22.20842         5.55123        -0.88111
C         22.13314         8.61179        -0.56655
C         21.08855        10.61849         0.48985
C         21.03642        12.13129         0.34669
C         22.13840         9.93807        -0.36239
C         22.14746        12.88246         0.13854
C         20.98839        15.05221         0.26761
C         20.93227        16.53770         0.11089
C         22.13755        14.33268         0.15290
C         22.14798        17.35662         0.17680
C         20.86236        19.41401         0.52704
C         22.08064        18.72380         0.31813
O         16.37193        12.13318         1.85579
O         14.90752        14.39665         1.87448
O          3.95527        12.76671        -1.68905
O         10.34517        17.10324        -2.04990
O         12.03677         3.88105         2.00807
O         12.45290        15.02469         1.02056
O         12.54871        18.37342        -1.64360
O         10.58846         8.41665         1.45595
O          6.73279        12.71343        -1.78525
O         18.82763         7.20538        -1.59570
O          9.32776         4.10220         2.39547
O          2.56616         8.23858         1.00866
O         10.50504        14.52224        -2.16743
O          7.52828        17.02957         1.61198
O         19.98776        16.92588        -0.97658
O         15.29524         7.82847        -1.64932
O          6.91080         4.64681         2.57574
O          6.68667        10.12245        -1.69565
O         18.75829        14.65914        -0.70853
O         21.55090         6.82029         1.07165
O         18.44228        12.07736        -1.09628
H         18.46485        13.01199        -1.41634
O         17.96330         3.58376        -2.57017
H         18.79746         3.63495        -3.09998
O         13.65832         8.36045         1.60411
H         12.82439         8.10792         2.05776
O         18.86119        16.54186         2.46635
H         18.27962        15.89933         2.94466
O         13.90943        16.10022        -2.05977
H         13.56369        16.83970        -2.61037
O          9.59346         5.14239        -1.06928
H          9.38226         5.94705        -1.61049
O          8.59534         7.52321        -1.46756
H          7.65486         7.46697        -1.78508
O         11.23589        11.97573        -2.24276
H         11.02334        12.86130        -2.63518
O         12.29270         8.14206        -1.80206
H         13.03885         8.58948        -2.25582
O          4.96708        17.70863         1.63159
H          5.92689        17.53738         1.91259
O         19.56405         5.08987         1.31918
H         19.92284         5.83371         1.85967
O          5.03136         8.81681         1.87054
H          4.12892         8.93400         2.24232
O          4.88842        13.97916         1.64985
H          5.84387        14.03884         1.91407
O          8.70232         6.71155         2.16156
H          8.31470         5.92070         2.63533
O         15.20559        16.91254         2.25599
H         14.71831        16.11920         2.58636
O          2.45339         5.59811        -1.97838
H          3.37388         5.26217        -2.15269
O         17.41565        14.31879         2.65591
H         16.69592        13.75582         3.02942
O         19.57567         8.12986         1.86279
H         20.38869         8.46291         2.31266
O          4.98338        17.81821        -2.02551
H          5.14214        18.53295        -2.67659
O          4.43643         4.76897         1.97374
H          5.29683         4.92790         2.46307
O          5.24999         0.80897        -0.57240
H          4.46779         0.47051        -1.05649
O          7.61954        14.30939         1.47164
H          7.66212        15.28731         1.74362
O          5.91152         7.76283        -1.58526
H          5.86587         8.68412        -1.95822
O         19.79503        12.81444         2.25775
H         19.16046        12.12295         2.57662
O         16.33875         6.58555         1.63962
H         16.28135         5.70904         2.07603
O          2.22437        17.49960         1.80234
H          3.15084        17.68800         2.10439
O          1.92905        12.53747         1.35290
H          1.14298        13.04150         1.64844
O         21.43437        10.36782         1.90670
H         21.01466        11.09402         2.42624
O          6.44258         3.25753        -0.75756
H          6.10580         2.36757        -1.02748
O         18.41023        10.51246         2.18219
H         18.53875         9.55583         2.41046
O          9.62670         0.14993         0.14338
H          9.27420         0.48313        -0.70708
O         14.77296         0.02138         0.03028
H         13.94728        -0.43942        -0.22215
O         16.00464         1.90257         1.49916
H         15.66095         0.99868         1.67728
O          7.39930         8.94354         1.66782
H          7.74889         8.16305         2.17342
O          5.06432         5.19488        -1.62098
H          5.44271         5.98119        -2.08048
O          5.69781         2.30564         2.69862
H          6.20770         3.10915         3.00489
O         15.89463        17.33658        -1.27475
H         15.56209        16.74111        -1.99095
O         20.56007         3.74978        -3.16371
H         21.19215         3.14203        -3.60223
O         14.98151        10.30794        -2.10585
H         15.42252         9.50398        -2.48255
O         15.20723        13.09412        -1.53451
H         15.17029        12.21695        -1.99498
H          0.22067         1.48854        -0.17454
H          0.19665         3.92808        -0.53156
H          2.33842         0.31136         0.40857
H          0.14614         5.85029        -0.72054
H         -0.25453         8.14947        -0.65181
H          0.30834        10.39398        -1.65332
H          0.30470        12.83870        -1.35690
H          0.12856        14.63288        -0.39824
H          0.12137        17.05128        -0.04832
H          1.48025        19.22137        -0.30834
H          4.55971         0.47088         1.37755
H          3.57369        20.22307        -1.04315
H          7.30002         0.32123         1.02020
H          6.06383        20.32747        -0.56441
H         10.00649         0.82686         2.04305
H          8.52971        20.42804        -0.01472
H         12.18302         0.32157         0.06229
H         10.98129        20.31097         0.50212
H         14.72388         1.34740        -1.59202
H         13.44906        20.26576         0.88826
H         17.39068         0.32540        -0.20132
H         15.88616        20.39505         1.03417
H         19.79943         0.39440        -0.80483
H         18.39287        20.45419         1.01247
H         21.77572         1.65032        -1.48309
H         22.99653         3.87536        -1.89896
H         23.19804         6.02297        -0.78574
H         22.92233         8.14643        -1.17654
H         22.93203        10.54503        -0.82320
H         23.11461        12.40025        -0.06660
H         23.10298        14.84118         0.02165
H         23.13118        16.86619         0.14177
H         20.87967        20.50443         0.66719
H         23.01460        19.30407         0.32210
