         244
 CSIRO Nanostructure Databank - Neutral Graphene Oxide Data Set
C          1.21982         2.05143         0.38402
C          1.20795         3.42572         0.14342
C          2.42719         1.36987         0.45631
C          2.41062         4.13258        -0.06411
C          1.19699         6.32792        -0.19891
C          1.19927         7.71048        -0.13868
C          2.40000         5.58977        -0.12721
C          2.40047         8.44034         0.03991
C          1.20944        10.63464         0.14404
C          1.20894        12.03818         0.07424
C          2.39691         9.90478         0.11594
C          2.39640        12.75668        -0.00755
C          1.18305        15.02887         0.10019
C          1.23437        16.37589         0.20559
C          2.40244        14.24197        -0.31330
C          2.49833        17.09519         0.18080
C          2.54387        18.53511         0.24542
C          3.66446         2.00820         0.18393
C          3.64969         3.42354        -0.12990
C          4.84175         1.22393         0.44490
C          4.84817         4.20947        -0.33206
C          3.61935         6.31728        -0.02705
C          3.61349         7.73264         0.08073
C          4.86779         5.60887        -0.13104
C          4.90234         8.44653         0.40838
C          3.64219        10.61718         0.08943
C          3.63196        12.04563         0.02074
C          4.88000         9.91705         0.09179
C          4.88326        12.74991         0.03314
C          3.69082        14.92734         0.09941
C          3.68416        16.36461         0.19933
C          4.86935        14.19873         0.12278
C          4.94101        17.08786         0.48206
C          3.72152        19.23636         0.30221
C          4.99132        18.56093         0.38745
C          6.09527         1.52642        -0.10621
C          6.08105         3.59841        -0.70476
C          7.38950         1.24173         0.33322
C          7.32993         4.18508        -0.54960
C          6.11655         6.33119        -0.19724
C          6.14346         7.73742        -0.08384
C          7.35219         5.61949        -0.38925
C          7.35783         8.45950        -0.23647
C          6.10289        10.60926        -0.00007
C          6.09251        12.03698         0.01666
C          7.35855         9.88820        -0.15009
C          7.39147        12.75176         0.28994
C          6.15495        14.91479        -0.06908
C          6.23097        16.33744         0.34186
C          7.42640        14.16970        -0.24794
C          7.50667        17.06631         0.24170
C          6.21427        19.19966         0.40561
C          7.47956        18.49244         0.39420
C          8.55455         1.99569        -0.06396
C          8.55364         3.39561        -0.47463
C          9.79420         1.36492         0.13187
C          9.77568         4.09019        -0.57241
C          8.56232         6.31066        -0.52096
C          8.59107         7.73148        -0.47450
C          9.77038         5.54201        -1.00894
C          9.82825         8.40856        -0.62913
C          8.58745        10.61390        -0.27217
C          8.63395        11.98997        -0.07081
C          9.84074         9.91031        -0.75800
C          9.86896        12.72964         0.12028
C          8.76680        14.91490        -0.30656
C          8.70918        16.35585         0.17119
C          9.91204        14.09965         0.24925
C          9.93884        17.04450         0.32370
C          8.69890        19.17798         0.43107
C          9.93520        18.47741         0.41936
C         11.02516         2.02771        -0.06429
C         11.01571         3.42510        -0.39492
C         12.25571         1.34693         0.09351
C         12.25964         4.12343        -0.51082
C         11.06558         6.27086        -0.75484
C         11.06148         7.69800        -0.71677
C         12.26841         5.55769        -0.68159
C         12.32801         8.39110        -0.72842
C         11.09196        10.49045        -0.12868
C         11.09980        11.91784         0.28508
C         12.36905         9.83193        -0.52436
C         12.41192        12.63957         0.26484
C         11.12978        14.84125         0.79336
C         11.17411        16.32053         0.43157
C         12.44346        14.10863         0.49031
C         12.37214        17.01261         0.48370
C         11.16913        19.15948         0.52048
C         12.39045        18.45640         0.52536
C         13.48092         2.02143        -0.03651
C         13.47634         3.43100        -0.33367
C         14.71940         1.34221         0.16015
C         14.72890         4.12961        -0.42575
C         13.53110         6.25091        -0.75599
C         13.53570         7.68842        -0.84681
C         14.73369         5.53612        -0.72615
C         14.80248         8.40475        -0.93406
C         13.52904        10.54172        -0.65063
C         13.50614        12.02427        -0.55111
C         14.75336         9.88253        -1.24949
C         14.71788        12.84799        -0.85088
C         13.65211        14.88576         0.11714
C         13.67250        16.27305         0.71443
C         14.78257        14.27350        -0.37743
C         14.88655        17.06563         0.32759
C         13.62350        19.14522         0.65444
C         14.87521        18.48069         0.52210
C         15.93260         2.03207         0.13461
C         15.91727         3.43098        -0.13633
C         17.20272         1.35614         0.39949
C         17.24114         4.14003        -0.22691
C         16.04764         6.24086        -0.99539
C         15.99381         7.74283        -0.89939
C         17.08238         5.65251         0.01606
C         17.33051         8.45184        -0.99608
C         16.04638        10.61651        -0.93206
C         15.99979        12.10706        -1.10485
C         17.22550         9.95445        -0.81446
C         17.26626        12.88571        -1.01221
C         16.03356        15.00176        -0.46536
C         16.05516        16.42058        -0.12407
C         17.24453        14.34613        -0.73509
C         17.25555        17.15872        -0.22457
C         16.10148        19.18241         0.52986
C         17.31240        18.51205         0.22548
C         18.35145         2.04905         0.65108
C         18.28079         3.55667         0.73489
C         19.61909         1.44703         1.03916
C         19.65858         4.18570         0.43745
C         18.40501         6.36932         0.08074
C         18.32897         7.87270         0.10452
C         19.59046         5.70496         0.33070
C         19.67663         8.52880         0.05469
C         18.57768        10.66189        -0.85887
C         18.47461        12.15149        -0.54026
C         19.66783         9.99856         0.01075
C         19.72788        12.91743        -0.30189
C         18.48448        15.03832        -0.71819
C         18.46570        16.54164        -0.86639
C         19.72477        14.37987        -0.58427
C         19.77532        17.19024        -0.51881
C         18.57796        19.13797         0.37796
C         19.80161        18.46098         0.09331
C         20.69962         2.17590         1.41056
C         20.69542         3.69458         1.46844
C         22.01144         4.34851         1.13097
C         20.84493         6.40092         0.41732
C         20.87190         7.82814         0.21998
C         22.03851         5.63891         0.69976
C         22.13063         8.56330         0.19027
C         20.97869        10.74513         0.15746
C         21.06536        12.18438        -0.36780
C         22.19465         9.91492         0.13317
C         22.12713        13.05522         0.26871
C         20.95212        15.06892        -0.51711
C         21.02272        16.50727        -1.00452
C         22.07815        14.40531         0.09736
C         22.27702        17.21428        -0.60323
C         21.05656        19.07327         0.38673
C         22.25995        18.42587         0.04760
O         18.82730        12.56507         0.80708
O          5.62401        16.53029         1.67018
O         10.99515        10.83600         1.28519
O          6.02717         2.32754        -1.27077
O         20.09577        10.56591         1.30042
O         19.02499        10.51634        -2.19136
O         16.72241        12.53622        -2.31877
O          6.64362        14.51826        -1.42607
O         12.80866        13.14404         1.57685
O         13.68389        12.64855        -1.88339
O         20.39100         4.11029         2.81709
H         19.42972         3.91494         2.96306
O          2.41181        14.30124        -1.78939
H          2.44862        15.24810        -2.04292
O         17.90475         8.18474        -2.28651
H         18.41963         9.02459        -2.54674
O          9.11451        15.03834        -1.72371
H          8.26192        15.07592        -2.21950
O          9.96412        10.21203        -2.18253
H          9.27969         9.70251        -2.66480
O         10.99698        14.85007         2.24835
H         11.30206        13.96481         2.56181
O         16.43155         5.85844         1.31318
H         16.65008         6.78501         1.59648
O          5.00973         8.39043         1.88820
H          5.01207         7.44225         2.14086
O         17.69438         8.27950         1.37667
H         18.39803         8.58534         1.99011
O          7.44140        12.95145         1.74567
H          7.49671        12.06906         2.17048
O         20.99562        16.44303        -2.50111
H         21.32658        17.30535        -2.83326
O         16.41792         5.96317        -2.37588
H         16.99585         6.71503        -2.68016
O         21.44616        12.05067        -1.76030
H         21.32429        12.91647        -2.20308
O         20.18618         3.68878        -0.81063
H         19.46149         3.73999        -1.48247
O         18.30575        16.78100        -2.31667
H         19.17278        16.52381        -2.72811
O         17.88798         3.82599         2.10621
H         17.27326         4.60562         2.11776
O         17.72430         3.89063        -1.57063
H         17.19505         4.45820        -2.19395
O         13.75773        16.08055         2.17126
H         12.90466        15.67450         2.45980
O         14.57625         9.97583        -2.69299
H         14.46488        10.93071        -2.91002
O          9.63461         5.52115        -2.48236
H          8.84127         4.98255        -2.69114
H          0.27547         1.51928         0.56348
H          0.24796         3.95721         0.16611
H          2.43331         0.30015         0.71012
H          0.23544         5.81175        -0.31964
H          0.23995         8.23886        -0.21659
H          0.24011        10.12042         0.18677
H          0.24060        12.55619         0.05165
H          0.21027        14.52107         0.16636
H          0.31706        16.95435         0.39353
H          1.58924        19.08105         0.21821
H          4.74353         0.37569         1.13931
H          3.70700        20.33613         0.30539
H          7.54055         0.43247         1.06361
H          6.24546        20.30000         0.38964
H          9.80849         0.30915         0.44109
H          8.70718        20.27590         0.50067
H         12.24885         0.27415         0.33735
H         11.17649        20.25582         0.61250
H         14.70528         0.26326         0.37537
H         13.61068        20.23963         0.76805
H         17.19827         0.25540         0.43552
H         16.11684        20.25505         0.76962
H         19.67783         0.34642         1.04680
H         18.62198        20.16451         0.77052
H         21.61541         1.65322         1.73058
H         22.95436         3.81433         1.32633
H         23.01500         6.12603         0.56284
H         23.06806         7.99160         0.15776
H         23.16780        10.41043        -0.00058
H         23.02325        12.59103         0.70659
H         22.92743        15.02107         0.42788
H         23.23501        16.77903        -0.92220
H         21.07691        20.05151         0.88512
H         23.21327        18.91749         0.29124
