         276
 CSIRO Nanostructure Databank - Neutral Graphene Oxide Data Set
C        -11.05586         0.63403         0.77428
C        -10.02844         1.48664         0.15945
C         -9.04844         0.80460        -0.72594
C         -7.77164         1.51502        -1.14306
C         -6.45716         0.76123        -1.30122
C         -5.21444         1.58324        -1.70430
C         -3.88354         0.85984        -1.82203
C         -2.58740         1.61675        -1.95443
C         -1.37214         0.86766        -1.44441
C         -0.12436         1.57576        -1.05028
C          1.13027         0.80971        -0.54876
C          2.45217         1.42160        -1.01392
C          3.68477         0.63370        -0.70426
C          4.99344         1.38179        -0.56615
C          6.26513         0.63767        -0.42118
C          7.49941         1.28811         0.13035
C          8.79144         0.63319        -0.27163
C         10.03656         1.38406         0.05972
C         11.21700         0.55909         0.41933
C         -9.92578         2.81756         0.39155
C         -8.67373         3.59637         0.09040
C         -7.76600         3.02653        -1.01373
C         -6.53368         3.84098        -1.33263
C         -5.25495         3.11325        -1.73396
C         -3.92588         3.87707        -1.74863
C         -2.61441         3.12845        -1.86861
C         -1.28928         3.83287        -1.59360
C         -0.02244         3.03960        -1.39850
C          1.27357         3.75108        -1.06561
C          2.55189         2.93184        -1.00982
C          3.77098         3.58826        -0.42927
C          4.93062         2.75771         0.02638
C          6.14501         3.42738         0.61624
C          7.47697         2.70450         0.60594
C          8.75242         3.48045         0.58921
C          9.92997         2.82163         0.46080
C         -8.91820         5.10509        -0.10348
C         -7.57032         5.78490         0.03471
C         -6.44504         5.25959        -0.80181
C         -5.13257         5.98319        -0.75831
C         -3.88436         5.35349        -1.34004
C         -2.57522         6.08639        -1.15719
C         -1.34548         5.21856        -0.96223
C         -0.12567         5.78912        -0.30077
C          1.20799         5.12460        -0.47966
C          2.34957         5.61949         0.35966
C          3.63175         4.87547         0.32941
C          4.88282         5.67111         0.57947
C          6.16944         4.93531         0.69335
C          7.43296         5.63893         0.19612
C          8.68718         4.98755         0.82662
C         -7.43562         6.88289         0.79839
C         -6.12703         7.54826         1.13226
C         -4.92065         6.94483         0.39286
C         -3.62826         7.67528         0.54897
C         -2.60861         7.53593        -0.57271
C         -1.25184         8.09414        -0.15120
C         -0.01571         7.26823        -0.06027
C          1.09069         7.80190         0.84720
C          2.48073         7.08957         0.77887
C          3.57716         7.81348        -0.02060
C          4.95513         7.02080        -0.17448
C          6.17671         7.80929         0.28450
C          7.34127         7.13177         0.46406
C         -6.12217         9.04915         0.90493
C         -4.97098         9.72934         0.97969
C         -3.66942         9.01504         1.32309
C         -2.44674         9.87442         1.10721
C         -1.27567         9.38382         0.60280
C         -0.00707        10.04594         0.78560
C          1.18635         9.31888         0.75539
C          2.44185         9.95721         0.74845
C          3.62629         9.31531         0.20877
C          4.95042         9.96615         0.27707
C          6.10230         9.26132         0.37256
C        -10.79649        -0.60400         1.26245
C         -9.47677        -1.24477         1.31709
C         -8.24513        -0.41039         1.19618
C         -7.01051        -1.07615         0.61183
C         -6.34693        -0.71751        -0.77960
C         -4.91548        -1.25138        -0.71042
C         -3.74127        -0.53166        -1.27149
C         -2.56856        -1.31707        -1.82666
C         -1.25787        -0.57568        -1.87451
C          0.04901        -1.32346        -1.75610
C          1.11134        -0.72436        -0.85527
C          2.34893        -1.51743        -0.53577
C          3.53527        -0.68793         0.05828
C          4.87039        -1.45992         0.13002
C          6.20269        -0.82295        -0.10837
C          7.46998        -1.60547        -0.30971
C          8.78228        -0.88183        -0.36300
C         10.06596        -1.67701        -0.05970
C         11.20808        -0.78447         0.39840
C         -9.33718        -2.57560         1.54965
C         -8.00710        -3.28585         1.71929
C         -6.81596        -2.47002         1.12630
C         -5.72762        -3.33481         0.54091
C         -4.79986        -2.73441        -0.46868
C         -3.47624        -3.40145        -0.68761
C         -2.52267        -2.80075        -1.67180
C         -1.24371        -3.58555        -1.91587
C          0.08880        -2.84840        -1.94909
C          1.38471        -3.61793        -1.76550
C          2.66140        -2.77594        -1.36569
C          3.81408        -3.61944        -0.75726
C          4.71736        -2.95887         0.29246
C          6.06264        -3.68230         0.37395
C          7.40873        -3.04795         0.10178
C          8.61646        -3.68791         0.68739
C          9.78320        -2.76766         1.01500
C         -8.00222        -4.59914         0.89586
C         -7.38787        -5.71991         1.24901
C         -5.17565        -4.44149         1.39654
C         -4.29480        -5.44597         0.69757
C         -3.35007        -4.83985        -0.31531
C         -2.49365        -5.73685        -1.16358
C         -1.25758        -5.08929        -1.77262
C          0.03675        -5.93037        -1.97904
C          1.37348        -5.15255        -1.62947
C          2.56002        -5.87983        -1.04539
C          3.83028        -5.12019        -0.70648
C          4.97447        -5.94753        -0.12624
C          6.07739        -4.97810         1.15375
C          7.34508        -5.79050         1.03563
C          8.58686        -5.01189         1.01562
C         -7.02373        -6.95439         1.54907
C         -5.60231        -7.50059         1.77931
C         -4.47970        -6.93044         0.86028
C         -3.79242        -7.80543        -0.16614
C         -2.64918        -7.22377        -1.00370
C         -1.39978        -8.06506        -1.13151
C         -0.07334        -7.38090        -1.42133
C          1.04584        -7.93007        -0.57773
C          2.29459        -7.16341        -0.29182
C          3.38668        -7.82471         0.53361
C          4.68889        -7.11781         0.74617
C          5.91174        -7.84339         1.36181
C          7.24253        -7.14593         1.08719
C         -5.60627        -9.01389         1.79378
C         -4.76242        -9.80059         1.11506
C         -3.87117        -9.28435         0.04441
C         -2.71299       -10.14827        -0.44199
C         -1.40935        -9.37426        -0.42760
C         -0.20132       -10.02121        -0.14184
C          1.02309        -9.36184        -0.21737
C          2.35147       -10.05528        -0.07697
C          3.33293        -9.32562         0.86101
C          4.72139        -9.94760         0.72675
C          5.87165        -9.29634         0.94484
O          5.68919        -0.98131         1.24980
O          2.70243         4.72348         1.45832
O         -1.18405         1.24769        -0.05389
O         -1.53592        -4.43845        -3.05029
O         -3.19599        -6.53739        -2.16052
O         -3.25841         3.70742        -3.02684
O          0.70145         7.48309         2.25202
O          3.13221         0.68184        -2.05180
O         -3.22177         1.02555        -3.10394
O          1.13084        -7.01069         0.60368
O          6.72072        -3.85480        -0.91447
O         -3.00317        -2.19439        -2.89881
O         -6.19459        -1.33694         1.80419
O          1.20200        -1.57261         0.34215
O          7.47514         1.57998         1.55738
O         -2.64271        -3.78858         0.45248
O          3.20019         8.63699        -1.08645
O         -9.30051        -0.29784        -1.20569
O          2.37838        -5.83691        -2.47025
O          4.40360        -4.38247        -1.83736
O          0.90833        -3.22843        -3.08423
O         -7.38404         0.91183        -2.40578
O         -0.68951        -8.23244        -2.40754
O         -3.97538        -0.55683         0.17192
O         -3.48377        -6.22661         1.64245
O          3.61790        -6.95824         1.69916
O         -7.65206         3.71889        -2.27873
O          1.48899         4.93761        -1.88774
O         -1.10352         5.07617         0.49953
O         -3.87844         6.46036         1.30974
O          3.57270         3.52902        -1.85916
O          5.87211         1.15804        -1.71499
O          5.08404         6.67628        -1.50696
O         -8.15136         0.71709         1.67864
O         -5.87283        -3.62528        -0.87769
O         -0.33683        -0.67512        -2.99500
O         -6.09664         6.30415        -1.79015
O          5.14546         2.80303         1.46586
O         -4.65251        -8.62359        -1.01252
O         -3.23912         6.09047        -2.43015
O          5.53027         5.53239         1.87228
O         -0.43501         3.49544        -2.72282
O          8.12590        -1.35576        -1.58750
O         -5.45424         2.33108        -2.92278
O          5.46596        -5.03950         2.29906
O         -5.31075        -4.44327         2.61602
O          9.55879         1.23687        -1.34467
O         -0.26530         8.07952        -1.23919
O         -9.54252         5.39090        -1.34543
H         -8.93340         5.11792        -2.07180
O          2.86811        -9.49259         2.20326
H          3.29569        -8.78993         2.74461
O          3.21306        -0.34620         1.40271
H          3.34150        -1.15296         1.95178
O          1.14230         1.02435         0.86242
H          0.35509         0.59143         1.25698
O          3.95378        -3.08473         1.51583
H          4.36399        -3.79556         2.09247
O          5.83688        -6.31576        -1.12631
H          5.88916        -5.57562        -1.78153
O         -5.94869         7.33333         2.56293
H         -5.65206         6.40638         2.69085
O         -5.29098        -7.15815         3.13906
H         -5.05294        -6.19896         3.18196
O          9.44557        -2.06491         2.21791
H          9.25589        -2.71305         2.92689
O         -6.99994        -1.53215        -1.74577
H         -7.78001        -1.03476        -2.10367
O          5.74416        -7.79452         2.79637
H          5.58899        -6.83909         3.01555
O          7.46903         5.44564        -1.23118
H          6.65718         5.90512        -1.60695
O         10.49435        -2.35400        -1.25110
H          9.81022        -2.19996        -1.94387
O         -3.65817         8.75748         2.74338
H         -4.48133         8.23910         2.94628
O         -7.84009        -3.51939         3.10891
H         -6.92969        -3.86944         3.26312
O          8.67687         5.25000         2.23514
H          7.83312         4.92266         2.61326
O          3.20326        -2.22798        -2.56875
H          3.48423        -2.96794        -3.15046
O         -2.96486       -10.58373        -1.78066
H         -3.45370        -9.86517        -2.24179
O          0.14468        -6.15660        -3.38412
H          0.06342        -5.29023        -3.84429
O         -0.73931         7.63696         2.39273
H         -0.83379         7.77705         3.36641
O         -7.88201         3.50588         1.31501
H         -7.96659         2.59437         1.68642
O         -3.09580         8.42173        -1.59494
H         -2.55806         8.28744        -2.40485
O          2.96946       -10.05941        -1.37569
H          2.35626       -10.47198        -2.01896
O          3.02812         7.13182         2.10818
H          2.99864         6.21489         2.48041
H         12.12618        -1.32141         0.68439
H         12.12365         1.08840         0.75206
H         10.87313         3.38914         0.51374
H          9.60770         5.46386         0.40955
H          8.26521         7.67611         0.71702
H          7.05073         9.80514         0.50466
H          4.96950        11.06344         0.35786
H          2.49889        11.02573         1.01536
H          0.01970        11.13844         0.92337
H         -2.42863        10.82604         1.66165
H         -4.95597        10.82126         0.84465
H         -7.07371         9.56014         0.69713
H         -8.31305         7.26136         1.34606
H         -9.59698         5.46684         0.70879
H        -10.66335         3.31560         1.04129
H        -12.07284         1.04406         0.86932
H        -11.63067        -1.18819         1.68106
H        -10.23808        -3.18896         1.71055
H         -8.33562        -4.49516        -0.15392
H         -7.81389        -7.61519         1.95490
H         -6.27978        -9.46404         2.53857
H         -4.78055       -10.89048         1.26844
H         -2.61780       -11.05469         0.20765
H         -0.22542       -11.07255         0.18502
H          2.20192       -11.10939         0.28285
H          4.75137       -11.01841         0.47197
H          6.82768        -9.83811         0.86900
H          8.14845        -7.77289         1.06608
H          9.50644        -5.50409         1.37262
H         10.71218        -3.38156         1.17586
