         486
 CSIRO Nanostructure Databank - Neutral Graphene Oxide Data Set
C          8.20766        19.08244        -0.49234
C          8.20589        20.46221        -0.52526
C          6.98879        21.26675        -0.48983
C          8.28319        23.33233         0.08726
C          7.01401        22.60170        -0.28086
C          8.30323        24.80575        -0.29571
C         10.68218        14.68340        -0.24330
C         10.62937        16.08335        -0.71660
C          9.41596        16.90889        -0.47150
C         10.68036        18.97816        -1.03596
C          9.40690        18.27049        -0.60476
C         10.70997        20.42854        -0.59739
C          9.45492        21.21404        -0.56479
C         10.81510        23.31068        -0.30171
C          9.50118        22.56510        -0.38544
C         10.68606        24.72054        -0.85500
C          9.43210        25.48071        -0.60694
C         10.74615        27.69032        -0.95348
C          9.42351        26.93297        -1.08165
C         10.75221        29.05763        -0.79943
C         13.32332        10.54555         0.83626
C         13.24806        12.01528         0.48450
C         11.86782        12.66999         0.70525
C         13.12412        14.78108        -0.00311
C         11.85380        14.06368         0.07493
C         13.20023        16.09882        -0.51080
C         11.94884        16.78774        -0.90407
C         13.19637        18.98067        -0.98724
C         11.95025        18.25540        -0.52620
C         13.19909        20.32278        -1.18718
C         12.01873        21.12934        -0.78548
C         13.18280        23.27276        -1.15323
C         12.00964        22.58890        -0.88986
C         13.22801        24.69177        -1.02544
C         11.96808        25.46219        -1.08877
C         13.20288        27.57000        -0.80461
C         11.99310        26.94349        -0.99514
C         13.27589        29.03231        -0.91669
C         11.98913        29.84894        -0.93969
C         13.23707        31.95371        -0.31352
C         12.08223        31.32925        -0.69739
C         13.40795        33.40669        -0.20418
C         15.61950         7.60703         0.59673
C         14.55816         8.44441         0.80975
C         15.75650        10.69330         1.05561
C         14.52173         9.90172         1.01414
C         15.78087        12.19492         0.78155
C         14.38303        12.83721         1.15265
C         15.28378        15.18956         0.92986
C         14.26305        14.27634         0.66687
C         15.52143        16.37168         0.20853
C         14.40907        16.84207        -0.51723
C         15.70524        18.95523        -1.13949
C         14.43112        18.13831        -1.30958
C         15.71605        20.29235        -1.38276
C         14.43625        21.03413        -1.60036
C         15.74271        23.20837        -1.07455
C         14.43874        22.53656        -1.50393
C         15.68167        24.71352        -1.13944
C         14.47172        25.36706        -0.94105
C         15.71634        27.48372        -0.40348
C         14.40453        26.75940        -0.36370
C         15.64468        28.89098         0.05242
C         14.58412        29.75588        -0.62484
C         15.71266        31.85625         0.15787
C         14.38275        31.07927         0.17953
C         15.58317        33.15720         0.91039
C         14.50668        34.01616         0.37069
C         16.03038        35.99248         0.63169
C         14.83592        35.43983         0.28283
C         18.19335         7.69534         0.30689
C         16.99626         7.97009         0.90482
C         18.24415        10.63973         0.75195
C         16.95409        10.09805         1.31346
C         18.34674        12.03141         1.31278
C         17.06504        12.77510         1.48478
C         18.28983        14.94842         1.08388
C         17.22513        14.24829         1.54849
C         18.20505        16.41349         0.73631
C         16.85814        17.07910         0.27006
C         18.25726        18.86478        -1.06966
C         16.93978        18.32555        -0.57391
C         18.29968        20.32283        -1.43726
C         16.98758        21.05035        -1.58910
C         18.36663        23.25921        -1.66235
C         16.99251        22.54428        -1.65280
C         18.27867        24.72729        -1.22273
C         16.95606        25.45337        -1.07350
C         18.17037        27.46940        -0.11461
C         16.89654        26.82270        -0.49285
C         18.20229        28.86313         0.44101
C         16.88907        29.57801         0.51239
C         18.11721        31.70928         0.75793
C         16.90961        31.03735         0.57515
C         18.09326        33.09115         0.94183
C         16.88865        33.78356         1.31779
C         18.64087        35.43744         0.89494
C         17.13179        35.26558         1.40047
C         20.65939         7.70303         0.47510
C         19.44595         8.40985         0.65253
C         20.73738        10.51467         1.20035
C         19.47150         9.79104         0.95656
C         20.79685        12.01448         1.11918
C         19.62868        12.74432         1.17267
C         20.88439        14.94198         0.93867
C         19.59903        14.22983         1.16012
C         20.91847        16.43398         0.59681
C         19.51499        17.07531         0.35687
C         20.77862        18.97414        -0.78732
C         19.54284        18.08556        -0.79691
C         20.78058        20.33596        -0.91205
C         19.53538        21.09992        -1.10662
C         20.74172        23.25589        -0.77846
C         19.49253        22.46402        -0.99926
C         20.61613        24.66363        -0.31691
C         19.47951        25.35103        -0.60749
C         20.68568        27.60152        -0.34797
C         19.44087        26.83708        -0.56328
C         20.63104        29.04559        -0.00906
C         19.45768        29.66921         0.31257
C         20.55960        31.87095         0.70492
C         19.42687        31.09182         0.60420
C         20.53419        33.35594         1.19831
C         19.22512        33.99414         0.58370
C         20.89873        36.39772         1.70753
C         19.52593        36.34076         1.71182
C         23.06208         7.67126         0.02777
C         21.93516         8.33559         0.47294
C         23.25807        10.50249         0.58729
C         22.02996         9.74498         0.92649
C         23.27295        11.94789         0.75695
C         22.08600        12.67648         0.98375
C         23.28963        14.77178         0.49721
C         22.11450        14.11927         0.78006
C         23.26357        16.00479        -0.31035
C         21.96911        16.75204        -0.46517
C         23.27160        18.89068        -0.40409
C         22.06787        18.19411        -0.97873
C         23.35512        20.32623        -0.56921
C         22.09191        21.08006        -0.93470
C         23.34835        23.34196        -0.32205
C         22.07544        22.58531        -0.77023
C         23.05894        24.55043         0.63092
C         21.79486        25.35516         0.29308
C         23.15659        27.55798         0.12362
C         21.85895        26.85456         0.19257
C         23.20617        29.03323        -0.26825
C         21.88566        29.80169        -0.11296
C         23.05534        31.86380         0.99774
C         21.84686        31.24612         0.32734
C         23.11063        33.34716         0.60040
C         21.79927        34.13819         0.77328
C         23.20501        36.15424         1.09967
C         21.94691        35.57164         1.14006
C         25.60653         7.61878         0.16182
C         24.35552         8.36663        -0.28548
C         25.63343        10.53155        -0.03323
C         24.35911         9.82401         0.12559
C         25.69673        11.96375         0.31085
C         24.53252        12.64395         0.61295
C         25.80595        14.82045         0.40345
C         24.57271        14.13064         0.94052
C         25.81550        16.04022        -0.17745
C         24.55482        16.75345        -0.62969
C         25.76936        18.94137        -0.11438
C         24.49077        18.14027         0.05675
C         25.77595        20.28160         0.17646
C         24.47002        21.00951         0.16972
C         25.67397        23.21138         0.78545
C         24.40020        22.48323         0.38909
C         25.66398        24.72479         0.73808
C         24.33858        25.43031         0.65270
C         25.55927        27.60178        -0.17192
C         24.29962        26.83286         0.15455
C         25.58284        28.86687         0.72767
C         24.37339        29.74948         0.42117
C         25.60411        31.75343         1.19867
C         24.34561        31.05544         0.79654
C         25.61134        33.25233         1.02522
C         24.38328        34.03697         0.74077
C         25.69109        36.10472         1.08826
C         24.43590        35.43044         0.93736
C         28.09484         7.52823         0.35533
C         26.82557         8.23282         0.23311
C         28.10926        10.41418         0.54418
C         26.89878         9.70825         0.05026
C         28.15629        11.88236         0.41153
C         26.99345        12.60720         0.36534
C         28.32141        14.73066         0.28356
C         27.06507        14.06917         0.77531
C         28.33488        16.10050        -0.03419
C         27.09621        16.72146        -0.63032
C         28.20769        18.84038         0.28587
C         27.07403        18.29970        -0.60604
C         28.23293        20.36774         0.34383
C         27.02795        21.03178         0.34370
C         28.26239        23.25651         0.62348
C         26.98160        22.47108         0.74524
C         28.22089        24.73798         0.34548
C         26.90181        25.44849         0.28989
C         27.90063        27.68420        -0.52870
C         26.84755        26.76207        -0.00754
C         28.04562        28.94440         0.29833
C         26.90663        29.57855         0.68839
C         28.13725        31.68136         0.53385
C         26.94657        30.97870         1.29247
C         28.16344        33.20997         0.56337
C         26.88289        33.98061         0.72398
C         28.17820        36.07599         0.88302
C         26.92777        35.44020         0.97647
C         30.58231         7.47831         0.38780
C         29.31347         8.16755         0.45121
C         30.65787        10.35875         0.53090
C         29.37791         9.62695         0.71726
C         30.67349        11.72205         0.43580
C         29.45942        12.55513         0.80212
C         30.72940        14.65228         0.11716
C         29.50922        13.99355         0.33237
C         30.76745        16.05480         0.09145
C         29.56657        16.77702        -0.01881
C         30.68923        18.89737         0.76516
C         29.59124        18.28215        -0.12318
C         30.75194        20.38952         0.50585
C         29.51004        21.08381         0.43703
C         30.73395        23.20675         0.20627
C         29.51250        22.49465         0.34817
C         30.70035        24.62964        -0.10390
C         29.36061        25.20652        -0.55706
C         30.63381        27.51335        -0.23335
C         29.53841        26.73045        -0.94425
C         30.63276        28.81782         0.17506
C         29.39479        29.51800         0.59052
C         30.72910        31.74641         0.98263
C         29.43727        30.97776         0.94350
C         30.70434        33.23431         0.85740
C         29.41921        33.95225         0.72178
C         30.67253        36.05213         0.58879
C         29.40186        35.35057         0.73830
C         31.77908         8.14155         0.39022
C         33.11769        10.22753         0.34393
C         31.89147         9.58629         0.39921
C         33.22655        11.66343         0.18916
C         31.93083        12.38551         0.02561
C         33.26084        14.53040         0.11588
C         31.94995        13.86535        -0.15545
C         33.29303        15.98419         0.43903
C         32.08097        16.79392        -0.01044
C         33.32138        18.91571         0.58318
C         32.03172        18.16758         0.64072
C         33.26469        20.37966         0.33472
C         31.97902        21.08941         0.46603
C         33.24128        23.23015         0.24512
C         31.96013        22.49707         0.30041
C         33.17444        24.69652        -0.05665
C         31.86356        25.35362        -0.26404
C         33.08215        27.50279        -0.52264
C         31.89658        26.79861        -0.38721
C         33.13883        28.92475        -0.28826
C         31.94067        29.52624         0.37436
C         33.31531        31.78227         0.54686
C         32.01070        30.97945         0.75321
C         33.10259        33.26049         0.26289
C         31.94528        33.94608         0.46027
C         31.84565        35.39592         0.37870
C         34.42627        12.32966         0.09088
C         35.75736        14.58194        -0.32844
C         34.47703        13.77155        -0.39073
C         35.77925        15.94929        -0.19039
C         34.67956        16.65872         0.61533
C         35.53592        18.75647        -0.66374
C         34.70063        18.23695         0.48431
C         35.42403        20.22916        -0.90923
C         34.35065        21.00431        -0.23233
C         35.52344        23.18185        -0.90931
C         34.56048        22.47490         0.01727
C         35.68940        24.66062        -0.69620
C         34.32290        25.32701        -0.76914
C         35.55824        27.51983        -1.23017
C         34.27960        26.80080        -1.00327
C         35.50283        29.03946        -1.21186
C         34.26258        29.64961        -0.57374
C         34.24634        31.16735        -0.51826
C         36.94171        16.73116        -0.56246
C         37.99233        18.88415        -1.19123
C         36.85612        18.08174        -0.83302
C         37.91873        20.23895        -1.46302
C         36.61345        20.93998        -1.49501
C         37.93288        23.19661        -1.64824
C         36.62495        22.47492        -1.54649
C         37.97190        24.56021        -1.62786
C         36.65835        25.30529        -1.71981
C         36.68289        26.81746        -1.51381
C         39.11156        21.01603        -1.71130
C         39.12477        22.37932        -1.77052
O         14.35590        21.88201        -2.79365
O         35.18660        16.31713         1.87276
O         23.05151        20.73258        -1.97109
O         27.17035        14.06952         2.20313
O         21.46599        26.20616         1.44306
O         18.26923        27.72612         1.34521
O         32.76465        18.42344         1.86791
O         18.89216        17.36946         1.61768
O         21.55515         9.95722         2.28562
O         33.41752        24.24059         1.30862
O         17.73189        25.51507        -2.33792
O         34.85870        19.21798        -1.85088
O         17.65053        12.08645         2.62408
O         25.49946        32.64339         2.36367
O         30.81389        32.57536         2.19378
O         23.93900        21.57489         1.42270
O         15.96823        33.18688         2.30276
O         11.13970        24.92926        -2.22128
O         32.19644        29.94031         1.76481
O         28.52833        24.26163         1.67464
O         25.04798        25.32697         1.92781
O         22.33807        15.77767        -1.46122
O         14.22637        17.85962        -2.66959
O         18.34412        19.27885        -2.46498
O         15.89156        29.00748         1.49195
O         27.39626        33.71010        -0.62303
O         20.37848        14.77407         2.31234
O         21.87994        30.91509        -1.09347
O         20.18743        27.37937        -1.71447
O         11.22602        16.34748        -2.07381
O         36.31338        21.63913        -2.72689
O         11.51949        20.73066         0.59434
O         22.28107        33.75269        -0.54744
O         12.71141        29.50385        -2.19304
O         16.78858        18.40399         0.89354
O         26.42395        10.17884        -1.25169
O         33.13538        15.00551         1.49801
O         16.10879        14.91691         2.02363
O         25.54772        27.98919        -1.51881
O         33.92691        25.81772        -2.07903
O         16.85944        21.78691        -2.86626
O         21.59024        23.20110        -2.00785
O         28.55480         9.98934         1.87788
O         29.63825        26.87586        -2.22214
O         17.03607         8.88218         1.98143
O         31.81146        13.02033        -1.34836
O         22.75034        31.87942         2.38107
O         26.26534        22.68212         2.00495
O         27.13925        16.29066        -2.09374
O         29.40787        29.99027         1.99328
O         17.00245        35.67266         2.78015
H         16.43322        35.00462         3.22772
O          9.09558        26.90641        -2.48181
H          9.74827        26.30909        -2.91550
O         25.42145        28.41509         2.09304
H         25.76941        29.11178         2.69414
O         28.01168        31.32502        -0.86870
H         27.55479        32.06794        -1.33199
O         18.81958        23.29839        -3.02876
H         18.29857        23.98606        -3.50010
O         29.05701        24.54571        -1.80642
H         29.35771        25.18804        -2.51011
O         29.93223        18.67196        -1.47317
H         29.13077        18.52041        -2.03920
O         24.00070        23.85291        -1.49878
H         23.33359        23.85736        -2.22855
O         27.46422        28.08507        -1.76216
H         27.48270        27.33656        -2.40169
O         14.18730        26.50912         1.07775
H         14.65220        27.20827         1.59110
O         24.65828        16.98600        -2.05216
H         24.71447        16.11588        -2.50175
O         24.60379        14.26453         2.38028
H         25.56733        14.18625         2.65479
O         23.48030        29.01743        -1.68822
H         23.33992        29.93036        -2.02848
O         29.43665        12.64058         2.25426
H         28.61038        13.16333         2.49001
O         15.87060        22.93783         0.36756
H         15.16792        23.43043         0.84516
O         35.57086        29.51984        -2.58054
H         34.98963        28.95177        -3.12877
O         36.23363        24.91646         0.62082
H         35.85588        24.24315         1.24206
O         11.95654        18.19312         0.91944
H         11.95155        19.11892         1.26394
O         35.27302        22.48292         1.31794
H         34.62489        22.23900         2.01512
O         14.22304        12.77552         2.57944
H         14.86087        13.40698         2.98256
O         22.83851        24.00287         1.93101
H         23.57660        24.29828         2.51739
O         10.71403        19.00846        -2.47469
H         10.83682        18.07659        -2.78519
O         21.44769        17.11779         1.75141
H         20.93191        16.80163         2.52916
O         14.00248        30.77358         1.52907
H         14.74321        30.28795         1.97007
O          8.34834        23.32226         1.55351
H          9.26902        23.58810         1.79295
O         32.30733        17.05668        -1.42612
H         31.56209        17.62592        -1.74662
O         11.52440        12.74519         2.08873
H         12.34683        12.92844         2.60155
O         34.32683        13.67271        -1.84779
H         33.41985        13.30829        -2.02565
O         18.07837        10.75980        -0.71108
H         18.04760         9.85054        -1.08241
O         35.41903        18.73718         1.63293
H         35.45348        17.96415         2.26670
O         19.41481        33.93690        -0.84847
H         20.33562        33.66400        -1.06331
O         30.30462        18.74620         2.15366
H         31.14129        18.75937         2.68002
O         22.26136        18.18096        -2.41714
H         23.10438        17.68820        -2.59050
O         19.69848        17.18562        -1.92685
H         19.69584        17.73962        -2.74165
O         11.10372        23.46689         1.13224
H         11.27885        22.55355         1.46743
O         33.82701        31.62687        -1.81157
H         34.42039        31.19196        -2.46809
O         27.82973        18.35869         1.58613
H         28.57594        18.51665         2.21480
O         34.05599        31.73204         1.78749
H         33.41238        31.71747         2.52802
O         13.39934        12.04564        -0.95653
H         14.36386        12.08129        -1.17419
O         36.21007        25.05068        -3.06927
H         35.28222        25.38203        -3.14949
O         27.21802        30.84374         2.69092
H         26.77241        31.58592         3.16342
O         24.35627        17.83999         1.47016
H         24.46704        18.66537         1.98859
O         18.91743        37.35957         2.36155
H         17.97791        37.13566         2.55480
O         24.42535         8.36053        -1.75638
H         25.21047         8.91753        -1.99065
O         15.98784        32.33533        -1.18785
H         15.98190        31.55514        -1.79860
O         15.16986        30.02103        -1.92650
H         14.41395        30.07002        -2.56563
O         28.46099        16.55218        -2.63250
H         28.90703        15.67100        -2.57956
O         27.25779        18.79729        -1.94261
H         26.72405        18.23116        -2.54625
O         15.99605        12.47881        -0.62180
H         16.74719        11.91082        -0.93854
O         20.48812        33.33025         2.61786
H         21.30496        32.80454         2.88486
H          7.24612        18.55508        -0.38864
H          6.02935        20.75531        -0.66239
H          6.07253        23.17158        -0.26608
H          7.35449        25.35745        -0.19405
H          9.72782        14.16834        -0.05006
H          8.49175        16.38342        -0.18138
H          8.61329        27.50305        -0.56118
H          9.80640        29.58818        -0.60942
H         12.41059         9.94590         0.68751
H         11.09049        12.04060         0.19847
H         11.19386        31.92969        -0.95308
H         12.61976        34.03835        -0.64558
H         15.41344         6.59219         0.22206
H         13.56285         8.01198         0.61141
H         16.16468        37.07448         0.47317
H         14.08143        36.09267        -0.18511
H         18.25699         6.92079        -0.47155
H         18.57347        35.93080        -0.10648
H         20.60893         6.64381         0.18144
H         21.28726        37.28163         2.23770
H         22.96948         6.62030        -0.28922
H         23.29022        37.21693         1.37182
H         25.54237         6.52261         0.24130
H         25.68344        37.19725         1.22186
H         28.07309         6.43094         0.26634
H         28.22586        37.17347         0.94769
H         30.57202         6.37992         0.32265
H         30.64918        37.15137         0.56866
H         32.71212         7.56049         0.33660
H         34.04160         9.62890         0.34235
H         34.01407        33.82667         0.01407
H         32.76735        35.96523         0.18878
H         35.36470        11.75611         0.15440
H         36.62148        14.10730        -0.82590
H         36.41078        29.44705        -0.69405
H         35.28973        31.54125        -0.31424
H         37.90588        16.21292        -0.69250
H         38.97792        18.39374        -1.22636
H         38.93217        25.09525        -1.68414
H         37.62323        27.35778        -1.70890
H         40.06069        20.46674        -1.80092
H         40.07942        22.90150        -1.93259
