         204
 CSIRO Nanostructure Databank - Neutral Graphene Oxide Data Set
C        -11.05731         0.73759         0.70017
C         -9.84578         1.48767         0.47891
C         -8.63040         0.75853         0.25778
C         -7.40892         1.46604         0.09005
C         -6.20128         0.73658        -0.16262
C         -4.93332         1.44181        -0.15495
C         -3.73678         0.72361        -0.15965
C         -2.48060         1.44066         0.27716
C         -1.22024         0.72844        -0.08307
C         -0.01508         1.40891        -0.20549
C          1.23691         0.68677        -0.27091
C          2.45719         1.40903        -0.33538
C          3.69268         0.69565        -0.25556
C          4.91477         1.41691         0.00331
C          6.12142         0.67675         0.27748
C          7.34815         1.35870         0.53578
C          8.59791         0.70939         0.54372
C          9.81743         1.44853         0.58291
C         11.05940         0.70589         0.50555
C         -9.82286         2.88873         0.48463
C         -8.61128         3.60816         0.32646
C         -7.39304         2.88756         0.15636
C         -6.14653         3.59449         0.06628
C         -4.92838         2.87913        -0.02331
C         -3.69120         3.59619        -0.06768
C         -2.46067         2.89892        -0.07515
C         -1.23941         3.57656        -0.23990
C         -0.00291         2.84951        -0.28685
C          1.23018         3.52400        -0.49684
C          2.44887         2.83345        -0.47410
C          3.77122         3.54262        -0.71569
C          4.89714         2.81494        -0.02385
C          5.99933         3.56551         0.55080
C          7.32570         2.79745         0.82145
C          8.57415         3.57621         0.77057
C          9.79176         2.85600         0.65305
C         -8.57870         5.04187         0.32684
C         -7.38712         5.74547         0.22662
C         -6.13421         5.02380         0.13581
C         -4.91442         5.72372         0.07705
C         -3.69312         5.02649        -0.07018
C         -2.45765         5.73476        -0.21370
C         -1.24278         5.01970        -0.34740
C         -0.03327         5.72411        -0.58038
C          1.19793         4.97157        -0.79085
C          2.53347         5.75770        -0.72707
C          3.73239         5.01494        -0.36820
C          4.86927         5.71506         0.05701
C          6.07015         5.01892         0.39521
C          7.27717         5.70266         0.67664
C          8.50242         4.97867         0.82304
C         -7.35373         7.19447         0.14866
C         -6.17885         7.89946         0.12213
C         -4.87173         7.19466         0.39402
C         -3.66124         7.89445        -0.16353
C         -2.46270         7.17143        -0.34899
C         -1.24401         7.85317        -0.62252
C         -0.02011         7.14895        -0.65700
C          1.23433         7.87547        -0.56009
C          2.45168         7.19938        -0.44800
C          3.65553         7.87638        -0.06034
C          4.84748         7.15903         0.15604
C          6.06308         7.84575         0.51024
C          7.24405         7.13459         0.71715
C         -6.13192         9.34132         0.00422
C         -4.95738        10.01426        -0.13483
C         -3.67985         9.32555        -0.29004
C         -2.52754        10.01807        -0.59584
C         -1.24589         9.32344        -0.95100
C         -0.00049        10.00733        -0.45162
C          1.19273         9.31871        -0.34536
C          2.42115         9.99254        -0.01458
C          3.61922         9.30899         0.12465
C          4.85450         9.97904         0.46252
C          6.01552         9.28568         0.63385
C        -11.05258        -0.62799         0.73870
C         -9.84103        -1.38495         0.53297
C         -8.62954        -0.66492         0.25881
C         -7.42608        -1.37967        -0.01308
C         -6.23079        -0.65415        -0.29521
C         -5.01547        -1.37020        -0.82590
C         -3.71452        -0.69344        -0.40665
C         -2.52934        -1.40565        -0.38092
C         -1.27212        -0.73565         0.01746
C          0.00771        -1.49544         0.00450
C          1.26434        -0.73338        -0.17574
C          2.46815        -1.43605        -0.22057
C          3.69631        -0.71816        -0.26515
C          4.94433        -1.42421        -0.24335
C          6.11706        -0.73758         0.04235
C          7.36746        -1.49512         0.26110
C          8.64760        -0.76002         0.54909
C          9.92766        -1.47651         0.35648
C         11.11482        -0.65843         0.38859
C         -9.81359        -2.77913         0.60880
C         -8.60339        -3.50872         0.41833
C         -7.40980        -2.80341         0.07606
C         -6.17566        -3.52776        -0.12637
C         -5.02060        -2.84652        -0.50702
C         -3.80266        -3.59522        -0.79754
C         -2.45317        -2.82786        -0.76974
C         -1.22782        -3.61810        -0.58660
C          0.00741        -2.94296        -0.32492
C          1.20867        -3.62961        -0.30106
C          2.45973        -2.90289         0.14790
C          3.72339        -3.63302        -0.21098
C          4.90371        -2.85776        -0.72755
C          6.22586        -3.61318        -0.62342
C          7.49026        -2.88086        -0.26546
C          8.72758        -3.63345         0.05719
C          9.93333        -2.85628         0.24350
C         -8.55710        -4.91567         0.58343
C         -7.35946        -5.64831         0.41856
C         -6.15119        -4.96404         0.03674
C         -4.95801        -5.70137        -0.16161
C         -3.74263        -5.03264        -0.54402
C         -2.52512        -5.71212        -0.68518
C         -1.26111        -5.02460        -0.71863
C         -0.01007        -5.77794        -0.66523
C          1.24156        -5.05206        -0.47987
C          2.46381        -5.71939        -0.32473
C          3.72246        -5.00420        -0.24482
C          4.98813        -5.75737        -0.29036
C          6.22063        -5.06957        -0.40676
C          7.45371        -5.74960        -0.20054
C          8.69010        -5.01072        -0.03255
C         -7.32521        -7.05168         0.63477
C         -6.14118        -7.78762         0.48069
C         -4.94262        -7.11866         0.06148
C         -3.75842        -7.86311        -0.14848
C         -2.56616        -7.18755        -0.68076
C         -1.25234        -7.95557        -0.68023
C         -0.00621        -7.17092        -0.65513
C          1.24112        -7.94157        -0.60377
C          2.53441        -7.17426        -0.45576
C          3.69549        -7.85042         0.23064
C          4.99232        -7.14806        -0.08819
C          6.21415        -7.86388        -0.03174
C          7.42989        -7.15845        -0.07036
C         -6.08253        -9.20240         0.71322
C         -4.90902        -9.89870         0.56630
C         -3.70342        -9.24846         0.14344
C         -2.45571        -9.95184         0.13588
C         -1.24375        -9.33561        -0.14990
C          0.01885        -9.99457         0.04363
C          1.22719        -9.36149        -0.17854
C          2.50535       -10.02633        -0.05087
C          3.70249        -9.34577         0.01796
C          4.98413       -10.00660         0.07135
C          6.16204        -9.31314         0.07887
O          2.40227        -2.92156         1.62161
H          1.57166        -2.47079         1.89031
O         -2.51383         1.39844         1.76726
H         -2.14217         0.53050         2.04126
O          7.12817        -3.09374        -1.67404
O         -1.16246         9.40270        -2.43871
H         -0.34343         8.92879        -2.70101
O         -4.69932         7.26281         1.86625
H         -5.45106         6.77440         2.26544
O          3.45922        -7.64353         1.66377
H          4.23461        -7.99811         2.14779
O          1.93114         5.34513        -2.01291
O          2.15609        -7.70485        -1.74989
O          4.61612        -2.73794        -2.16307
H          5.48834        -2.63682        -2.61153
O         -5.08796        -1.25454        -2.28769
H         -4.37516        -1.84119        -2.64334
O          4.02878         3.47650        -2.16528
H          3.32485         4.02767        -2.58581
O         -0.67900        -1.24310         1.30775
O         -2.03610        -7.79637        -1.91207
O          7.84202        -1.37732         1.63664
O         -3.13149        -3.14711        -2.03497
O          6.40927         3.14037         1.89821
H         12.09291        -1.15633         0.31113
H         11.99778         1.28014         0.52595
H         10.74135         3.41192         0.63309
H          9.43887         5.55371         0.88846
H          8.16911         7.68149         0.95417
H          6.94362         9.81723         0.89142
H          4.83970        11.07254         0.58145
H          2.39574        11.08225         0.13704
H         -0.01395        11.09943        -0.31651
H         -2.56162        11.11337        -0.70157
H         -4.96045        11.11120        -0.21894
H         -7.08376         9.89436         0.01818
H         -8.31291         7.72919         0.06213
H         -9.52911         5.59172         0.40270
H        -10.76052         3.44467         0.63599
H        -11.99479         1.29086         0.85930
H        -11.98618        -1.17795         0.92894
H        -10.73734        -3.33045         0.84012
H         -9.47547        -5.45113         0.86732
H         -8.24864        -7.56787         0.93726
H         -6.99803        -9.72334         1.02942
H         -4.87969       -10.97807         0.77577
H         -2.45356       -11.00088         0.47012
H          0.00997       -11.04088         0.38631
H          2.51120       -11.12806        -0.02468
H          5.00121       -11.10730         0.08142
H          7.11539        -9.86082         0.11536
H          8.37768        -7.70664         0.03824
H          9.61263        -5.58903         0.12983
H         10.89660        -3.38964         0.22940
