         272
 CSIRO Nanostructure Databank - Neutral Graphene Oxide Data Set
C        -11.17525         0.95741         0.01326
C        -10.02114         1.54008         0.79584
C         -8.68905         1.13503         0.11556
C         -7.41309         1.88735         0.49070
C         -6.33750         0.90806         1.05382
C         -5.19500         1.50823         1.81747
C         -3.92788         0.69412         2.21199
C         -2.60369         1.51726         2.13091
C         -1.28668         0.78176         2.22068
C          0.03175         1.51964         1.97248
C          1.31732         0.76992         1.72502
C          2.60508         1.56510         1.72524
C          3.88744         0.76206         1.60081
C          5.00144         1.36344         0.77761
C          6.36368         0.74894         0.84566
C          7.42347         1.36776        -0.01420
C          8.47427         0.47331        -0.53120
C         10.25858         1.66809        -0.68765
C         11.34482         0.75246        -0.35853
C        -10.04018         3.05098         0.90190
C         -8.94971         3.72799         1.29606
C         -7.67460         2.95088         1.65532
C         -6.41066         3.81298         1.80434
C         -5.13124         3.02614         1.86739
C         -3.88954         3.63220         1.26084
C         -2.57617         2.81088         1.29278
C         -1.32917         3.69384         1.47070
C         -0.00534         2.96944         1.61376
C          1.24381         3.72051         1.22117
C          2.57443         3.01304         1.32530
C          3.62326         3.49072         0.33983
C          4.90298         2.72457         0.17076
C          6.16207         3.57059        -0.09000
C          7.31806         2.73119        -0.67491
C          8.62609         3.54577        -0.62545
C          9.93484         2.94863        -0.31693
C         -8.95151         5.24873         1.44713
C         -7.70025         5.83687         0.82577
C         -6.42588         5.25610         1.34741
C         -5.14775         5.93357         0.99721
C         -3.90257         5.09061         0.89339
C         -2.61692         5.82112         0.65506
C         -1.33612         5.06414         0.85841
C         -0.18116         5.41193        -0.09849
C          1.15362         5.03281         0.52143
C          2.42046         5.71345         0.06135
C          3.52740         4.80588        -0.38034
C          4.60212         5.31660        -1.39162
C          6.01303         4.61280        -1.22191
C          7.23288         5.53137        -1.19511
C          8.49827         4.88942        -0.86373
C         -7.71274         6.84870        -0.06733
C         -6.46245         7.30849        -0.79249
C         -5.21377         7.12841         0.07450
C         -3.96139         7.71160        -0.47641
C         -2.63646         7.10450        -0.10680
C         -1.53915         7.35304        -1.13796
C         -0.15826         6.81268        -0.73985
C          1.06021         7.67930        -0.82465
C          2.37328         7.12700        -0.37202
C          3.59774         7.74779        -0.97192
C          4.67909         6.86449        -1.53596
C          5.96017         7.58660        -1.85207
C          7.20788         6.84127        -1.58181
C         -6.46311         8.73644        -1.31290
C         -5.33127         9.31577        -1.75031
C         -4.02039         8.54951        -1.76192
C         -2.74177         9.37801        -1.84159
C         -1.53078         8.82736        -1.54362
C         -0.28091         9.59534        -1.56600
C          0.94289         9.11267        -1.20373
C          2.21319         9.97579        -1.27841
C          3.55786         9.20833        -1.29167
C          4.77343         9.77799        -1.94922
C          5.92942         9.07798        -1.96945
C        -11.10402        -0.28630        -0.47605
C         -9.85018        -1.12258        -0.33023
C         -8.60997        -0.23989        -0.45308
C         -7.26572        -0.92635        -0.56326
C         -6.14407        -0.37933         0.29039
C         -4.97717        -1.25762         0.68938
C         -3.83245        -0.68129         1.48162
C         -2.45535        -1.30848         1.33825
C         -1.28040        -0.73064         2.13124
C          0.03455        -1.45975         2.04260
C          1.34716        -0.71929         1.87538
C          2.64466        -1.46810         2.13848
C          3.94691        -0.70658         1.94955
C          5.24210        -1.48090         1.67007
C          6.43562        -0.73452         1.13565
C          7.54059        -1.49223         0.46299
C          8.73771        -0.75298        -0.00663
C         10.01131        -1.44023        -0.20180
C         11.22498        -0.61395        -0.31501
C         -9.77476        -2.24322        -1.38268
C         -8.55988        -3.10602        -1.09230
C         -7.25227        -2.39516        -0.94712
C         -6.00317        -3.18925        -0.68035
C         -4.71089        -2.39782        -0.28790
C         -3.56299        -3.34004         0.12346
C         -2.34018        -2.67570         0.71809
C         -1.27636        -3.56849         1.36606
C          0.06487        -2.83996         1.42035
C          1.34990        -3.60951         1.45188
C          2.62643        -2.95852         1.95024
C          3.86046        -3.65714         1.41502
C          5.20807        -2.99662         1.53895
C          6.43787        -3.72961         1.08484
C          7.61356        -2.96013         0.55713
C          8.96320        -3.65956         0.55378
C         10.08396        -2.80318        -0.02391
C         -8.60290        -4.44779        -1.15079
C         -7.46094        -5.38034        -0.81201
C         -6.20539        -4.63743        -0.26895
C         -5.03357        -5.46200         0.19152
C         -3.66737        -4.83828         0.14977
C         -2.43467        -5.70405         0.46036
C         -1.17627        -4.98941         0.81528
C         -0.01984        -5.80818         1.30275
C          1.29263        -5.11613         1.50828
C          2.58051        -5.92727         1.38390
C          3.83036        -5.13279         1.10016
C          5.08762        -5.85302         0.58080
C          6.36394        -5.08606         0.43942
C          7.64253        -5.74622         0.02758
C          8.80673        -5.05863        -0.02708
C         -6.99520        -6.21128        -2.01341
C         -6.22473        -7.30433        -1.77638
C         -4.98486        -6.94502         0.11314
C         -3.88108        -7.69855         0.31064
C         -2.58204        -7.18888         0.90428
C         -1.28037        -8.00095         0.58148
C         -0.00648        -7.25275         0.80486
C          1.25678        -7.43503        -0.01821
C          2.53825        -7.31993         0.78151
C          3.82447        -8.08221         0.49083
C          5.13868        -7.35497         0.51545
C          6.44896        -8.02276         0.04670
C          7.46931        -7.09310        -0.66482
C         -5.47399        -8.07488        -2.76726
C         -4.32231        -8.79278        -2.61884
C         -3.47381        -9.04116        -1.44770
C         -2.12831        -9.21580        -1.49722
C         -1.34991        -9.35541        -0.19695
C         -0.02319       -10.08439        -0.45143
C          1.23471        -9.70373        -0.57518
C          2.50306        -9.66002        -0.97986
C          3.71290        -9.51555        -0.07232
C          4.97523        -9.89488        -0.83178
C          6.14508        -9.24468        -0.79926
O          4.67155         1.54062        -0.64601
O         -1.89167         6.50156        -2.22729
O          6.91555         2.55813        -2.06064
O          4.24023         0.31515         2.93940
O         -4.65374         8.34396         0.64122
O         -6.21938        -0.11578        -1.14315
O          6.31639        -1.05108         2.54961
O          1.20704         4.98361         1.96443
O          0.86033        -2.99055         0.22190
O         -8.78864         0.91917        -1.32746
O         -6.36930        -2.83458        -2.03903
O          4.64979        -8.03602         1.70492
O          0.20401         2.52415         2.99761
O          0.45176        -5.56645         2.64451
O          6.09606        -3.67754         2.48956
O         -3.35997        -4.13712        -1.09513
O          0.65794         6.79205        -1.94339
O          5.43708        -5.22552        -0.69567
O         -4.03460        -9.02571        -0.14781
O         -6.06512        -7.66925        -0.42569
O          7.15254        -2.35258        -0.69302
O          5.05389         7.10838        -2.92013
O         -0.71018        -1.40635         3.28791
O         -0.45591        -8.21741         1.78622
O          1.32591        -0.09123         0.54463
O         -4.82341        -1.60376         2.07088
O          9.29661         1.02797        -1.50678
O         -7.87607         2.23898         2.82261
O          2.68089         6.79412         1.01282
O          2.46337        -7.09403         2.21872
O         -5.96437        -4.83803         1.15630
O         -5.73216         6.13773         2.30314
O         -6.35658         0.88240         2.48061
O          6.17977         3.78564        -2.43305
O          4.02940         8.74496         0.02419
O         -1.42532        -5.39542        -0.55377
O         -1.26322         4.87016         2.31254
O         -4.12897         4.05315        -0.13110
O          7.43576         1.51248         1.46886
O         -1.91383         1.41186         3.38788
O          1.24176        -7.11803        -1.20331
O          2.92588         3.59109        -0.94375
O          2.86845         2.63177         2.68666
O          3.49616        -4.11619         0.08744
O         -5.68971         3.62194         3.05714
O         -2.41744         7.12574         1.31849
O          2.61984        -2.38758         3.27487
O         -1.94621        -1.50502        -0.02931
O         -2.73904        -7.14958         2.33451
H         -1.92384        -7.53318         2.73952
O          7.09358        -6.87799        -2.02515
H          6.39626        -6.18135        -2.04286
O          7.14239        -8.46614         1.23298
H          6.46812        -8.82859         1.85123
O          2.14293        10.81580        -2.43126
H          2.02940        10.25339        -3.22501
O          9.29689        -3.82656         1.96245
H         10.13320        -4.33274         2.02729
O         -6.89918         2.56590        -0.62767
H         -7.26787         2.13492        -1.43780
O         -4.14707         0.37680         3.58582
H         -3.31069         0.53029         4.08743
O         -9.78355        -1.72386         0.97568
H        -10.60383        -2.24335         1.10868
O          6.51106         4.20827         1.13568
H          6.89051         3.52940         1.74089
O         -2.40382         2.24024        -0.03067
H         -2.76485         2.87949        -0.69279
O          3.54673       -10.40352         1.04336
H          4.08537       -10.05387         1.78634
O         -0.42452         4.52467        -1.21484
H         -0.91974         5.06296        -1.90302
O         -4.22820        -1.73496        -1.45685
H         -3.93988        -2.41747        -2.10088
O        -10.98752        -2.98361        -1.33763
H        -11.01686        -3.59334        -2.10189
O        -10.08194         0.95510         2.10151
H         -9.35932         1.35289         2.65931
O          4.08713         4.93111        -2.66944
H          3.84536         3.97890        -2.63798
O         -4.09322         7.66325        -2.90853
H         -3.23682         7.13576        -2.93576
O         -1.75204        -3.76261         2.71518
H         -1.09438        -4.30411         3.21103
O        -10.13317         5.79386         0.88711
H        -10.09725         5.69527        -0.08624
O         -2.06594       -10.23442         0.68573
H         -1.60443       -10.22838         1.55055
O         -7.97855        -6.22738         0.21929
H         -7.47190        -6.04825         1.04499
O         -6.33480         6.40753        -1.92467
H         -5.59810         6.75149        -2.49973
H         12.16258        -1.17515        -0.16386
H         12.34628         1.18107        -0.19166
H         10.66694         3.57525         0.21486
H          9.39672         5.52601        -0.85784
H          8.15290         7.40742        -1.59277
H          6.85790         9.56585        -2.30500
H          4.76210        10.84685        -2.20849
H          2.22638        10.65887        -0.38813
H         -0.35425        10.64456        -1.89499
H         -2.80886        10.43710        -2.13959
H         -5.34747        10.34349        -2.14503
H         -7.41454         9.29018        -1.33972
H         -8.67873         7.27362        -0.38534
H         -8.95517         5.48727         2.54400
H        -10.96859         3.59698         0.67145
H        -12.09696         1.55061        -0.08722
H        -11.96034        -0.73985        -0.99747
H         -9.65049        -1.77929        -2.40484
H         -9.57080        -4.94501        -1.31720
H         -7.16589        -5.84133        -3.03396
H         -5.83837        -7.96126        -3.80170
H         -3.88358        -9.17581        -3.55570
H         -1.58628        -9.22597        -2.45244
H         -0.18448       -11.18107        -0.47260
H          2.68585        -9.55019        -2.06538
H          4.90081       -10.81331        -1.43518
H          6.99235        -9.64904        -1.37475
H          8.44830        -7.63383        -0.67266
H          9.70111        -5.55246        -0.44077
H         11.06921        -3.29344        -0.09728
