         429
 CSIRO Nanostructure Databank - Neutral Graphene Oxide Data Set
C          1.24146         3.50079         1.44190
C          0.06287         4.21948         1.48232
C          1.15975         6.31504         0.81971
C          0.02499         5.61161         1.20792
C          1.16632         7.73037         0.58046
C         -0.02180         8.50582         0.57439
C          1.18186        10.55193        -0.06692
C         -0.02304         9.84902         0.25313
C          1.16838        11.93513        -0.46799
C         -0.02552        12.69036        -0.62148
C          1.15510        14.82650        -1.15389
C         -0.04796        14.02352        -0.96953
C          1.15218        16.36700        -0.92529
C         -0.08365        17.06498        -0.53868
C          1.14715        19.13058        -0.05653
C         -0.06909        18.36200        -0.12981
C          1.13881        20.54441         0.03333
C         -0.08276        21.28981        -0.02322
C          1.12593        23.41458         0.14077
C         -0.08738        22.65528         0.02771
C          1.09316        24.82339         0.11926
C         -0.12099        25.58332         0.11696
C          1.00229        27.68337        -0.59053
C         -0.17404        26.92310        -0.14926
C          1.03887        29.22355        -0.55875
C         -0.15590        29.95874        -0.12302
C          1.11363        32.03853        -0.01716
C         -0.11189        31.29613         0.10540
C          1.13068        33.45599        -0.01227
C         -0.07047        34.23668         0.03231
C          1.18605        36.31416        -0.24170
C         -0.04381        35.60521        -0.07676
C          1.20454        37.73876        -0.39632
C          3.67875         3.47215         1.14354
C          2.46654         4.12890         1.06643
C          3.68429         6.28982         0.89258
C          2.42188         5.52935         0.49181
C          3.62103         7.70850         0.34566
C          2.41799         8.41033         0.29225
C          3.65922        10.55204        -0.10266
C          2.40659         9.83057        -0.01500
C          3.68844        11.95087        -0.32860
C          2.44336        12.59542        -0.76972
C          3.67393        14.85500        -0.62721
C          2.47548        14.11777        -1.03804
C          3.61030        16.26216        -0.45328
C          2.42492        17.00563        -0.55825
C          3.59467        19.12830        -0.12168
C          2.40838        18.42824        -0.21146
C          3.64919        20.53313         0.41658
C          2.36529        21.29447         0.15796
C          3.66310        23.39040         0.61477
C          2.36816        22.68008         0.22242
C          3.66279        24.89007         0.27706
C          2.35902        25.59645         0.08111
C          3.60079        27.69573        -0.76380
C          2.31851        26.94558        -0.59643
C          3.63845        29.23943        -0.90561
C          2.33497        29.92028        -0.46166
C          3.60163        32.00593        -0.10968
C          2.33945        31.28974        -0.20843
C          3.59647        33.44411        -0.07841
C          2.38639        34.15793        -0.11936
C          3.64024        36.29573        -0.41231
C          2.40039        35.59237        -0.25298
C          3.64234        37.72999        -0.54603
C          2.38326        38.42101        -0.54619
C          6.09620         3.28499         0.90563
C          4.93553         4.06137         0.74551
C          6.06394         6.23786         0.16496
C          4.93623         5.50370         0.47757
C          6.09802         7.69795         0.51918
C          4.88353         8.37577        -0.10596
C          6.08517        10.58047         0.21974
C          4.88343         9.86758         0.07453
C          6.09475        11.97643         0.02971
C          4.90260        12.67539        -0.29494
C          6.11945        14.83987        -0.27260
C          4.90837        14.13929        -0.40900
C          6.15289        16.27153        -0.29228
C          4.85912        17.00360        -0.00508
C          6.11101        19.18627        -0.36249
C          4.83787        18.41935        -0.57949
C          6.12717        20.56437        -0.24315
C          4.89620        21.29971         0.00742
C          6.14831        23.40766        -0.00974
C          4.90699        22.67075         0.12266
C          6.12952        24.86262        -0.11315
C          4.92095        25.53540        -0.17935
C          6.18127        27.74813        -0.39088
C          4.90075        26.95499        -0.57383
C          6.05910        29.18855        -0.08965
C          4.86855        29.88441        -0.24922
C          5.97346        32.08957         0.56256
C          4.80488        31.29746        -0.00026
C          6.04135        33.47010        -0.03890
C          4.85755        34.15721        -0.18077
C          6.10061        36.30128        -0.46828
C          4.86380        35.59301        -0.40551
C          6.10013        37.73922        -0.58561
C          4.85535        38.42084        -0.64633
C          8.66135         3.54498         0.83476
C          7.36944         3.66294         0.35579
C          8.49596         6.31946        -0.36260
C          7.27003         5.69972        -0.38122
C          8.55029         7.74195        -0.10194
C          7.36930         8.40095         0.15036
C          8.67507        10.53790         0.52758
C          7.35207         9.83706         0.45976
C          8.64069        12.03587         0.54566
C          7.35342        12.73411         0.23243
C          8.67911        14.83896        -0.11440
C          7.41388        14.08153        -0.44412
C          8.62103        16.32234         0.11031
C          7.34114        16.96858        -0.35528
C          8.66748        19.17972        -0.49413
C          7.34570        18.43020        -0.57932
C          8.61345        20.60492        -0.19615
C          7.39610        21.28344        -0.19408
C          8.61917        23.46480        -0.26616
C          7.35165        22.72301        -0.10641
C          8.63011        24.91120        -0.02155
C          7.38796        25.60014        -0.08568
C          8.61259        27.71203         0.20626
C          7.38938        27.00265        -0.00218
C          8.58529        29.11755         0.21955
C          7.30830        29.84195         0.36435
C          8.54852        32.10357         0.40589
C          7.30042        31.34473         0.57314
C          8.56120        33.46417         0.13104
C          7.33252        34.10623        -0.45502
C          8.55725        36.30522        -0.35590
C          7.33594        35.61056        -0.37709
C          8.56459        37.74388        -0.51436
C          7.33067        38.42524        -0.64102
C         11.07225         3.79811         0.62471
C          9.81615         4.25259         0.29947
C         10.97798         6.33272        -0.66154
C          9.71766         5.48088        -0.64237
C         10.95710         7.73774        -0.71927
C          9.79675         8.47159        -0.30292
C         11.08254        10.59916        -0.25879
C          9.86181         9.84717        -0.03225
C         11.12887        11.99922        -0.05346
C          9.97219        12.76283         0.52764
C         11.13788        14.90081        -0.02710
C          9.87124        14.18945         0.03224
C         11.14160        16.31767        -0.14975
C          9.91201        17.04655        -0.19505
C         11.17098        19.15620        -0.28234
C          9.92800        18.43073        -0.26769
C         11.17081        20.57173        -0.15630
C          9.89403        21.28101         0.23381
C         11.14949        23.46995         0.13744
C          9.91975        22.72616        -0.20170
C         11.08850        24.83336         0.36943
C          9.84942        25.58301         0.24633
C         11.05594        27.74538         0.66972
C          9.84911        27.00112         0.37445
C         11.07542        29.11825         0.63587
C          9.84785        29.84856         0.27761
C         11.06534        32.07088         0.74092
C          9.82079        31.35016         0.36414
C         11.01903        33.54785         0.52774
C          9.76869        34.22167         0.12993
C         11.04551        36.35339        -0.04030
C          9.79790        35.60634        -0.12925
C         11.04188        37.78430        -0.33789
C          9.79569        38.43216        -0.56226
C         13.54030         3.93337         0.53189
C         12.29118         4.42500         0.15834
C         13.45473         6.25825        -1.05676
C         12.21114         5.64355        -0.59233
C         13.45544         7.77801        -1.34250
C         12.13254         8.54239        -1.25561
C         13.50587        10.60061        -0.69200
C         12.26279         9.92473        -0.66878
C         13.54405        12.00869        -0.44421
C         12.33169        12.71786        -0.20338
C         13.58774        14.86965        -0.19550
C         12.34271        14.16671        -0.11398
C         13.61342        16.28695        -0.23925
C         12.38122        17.02079        -0.27425
C         13.66079        19.15533        -0.69031
C         12.38720        18.42868        -0.35617
C         13.62163        20.61199        -0.29235
C         12.40816        21.30011        -0.12213
C         13.59190        23.46304         0.27166
C         12.39704        22.74194         0.13696
C         13.60910        24.85148         0.60214
C         12.31438        25.51902         0.82959
C         13.59677        27.73833         0.92810
C         12.30430        27.01795         1.01661
C         13.59543        29.13995         0.90951
C         12.29191        29.87757         1.13626
C         13.52860        31.96644         0.46785
C         12.34841        31.31657         0.67035
C         13.52846        33.41563         0.10302
C         12.27665        34.21812         0.11696
C         13.52030        36.40900         0.32420
C         12.25709        35.69711         0.16383
C         13.53101        37.91218        -0.12773
C         12.25064        38.46727        -0.53273
C         16.01692         4.01126         0.56493
C         14.77833         4.54235         0.11996
C         15.95395         6.22310        -1.45317
C         14.73944         5.66019        -0.74298
C         15.96082         7.77739        -1.37451
C         14.75800         8.48331        -1.18831
C         15.98130        10.59758        -0.80206
C         14.74749         9.88957        -0.92366
C         16.01001        12.00069        -0.51853
C         14.79042        12.71636        -0.39752
C         16.05786        14.82710        -0.09577
C         14.81280        14.13188        -0.23061
C         16.05744        16.24706         0.01141
C         14.86737        16.99159        -0.16019
C         16.15451        19.10397        -0.21291
C         14.91242        18.41891        -0.26289
C         16.18994        20.58271        -0.38339
C         14.88268        21.34212        -0.41577
C         16.10367        23.49149         0.38258
C         14.87357        22.82171        -0.05842
C         16.07649        24.85278         0.64946
C         14.81343        25.57069         0.68805
C         16.05136        27.72289         0.90616
C         14.82013        27.00862         0.85381
C         16.04001        29.13612         0.95160
C         14.82025        29.85631         0.86999
C         16.00521        31.97254         0.38591
C         14.82304        31.29350         0.60556
C         16.03569        33.35885        -0.21794
C         14.82072        34.14652         0.25091
C         16.03185        36.33888        -0.18255
C         14.81915        35.64582         0.27871
C         16.02518        37.73178        -0.47330
C         14.81669        38.46131        -0.55015
C         18.50408         4.04596         0.52260
C         17.23626         4.54614         0.08569
C         18.44299         5.92833        -1.46169
C         17.21867         5.56802        -0.90881
C         18.42291         7.99562        -1.84743
C         17.17998         8.53916        -1.41745
C         18.46530        10.59476        -0.87671
C         17.20652         9.91165        -1.03166
C         18.47583        11.94965        -0.45482
C         17.26296        12.68173        -0.34373
C         18.54911        14.79969        -0.00064
C         17.28260        14.09102        -0.09700
C         18.57401        16.21084         0.14436
C         17.30267        16.95889         0.45381
C         18.59818        19.10116         0.27417
C         17.34641        18.41923         0.08159
C         18.63800        20.51714         0.39942
C         17.42718        21.31122         0.07438
C         18.56056        23.41400         0.96706
C         17.25826        22.63098         0.83196
C         18.55503        24.87950         0.75993
C         17.32330        25.58393         0.78557
C         18.55029        27.69694         0.85169
C         17.32309        27.00578         0.86059
C         18.62730        29.15394         1.25344
C         17.29632        29.89529         1.14052
C         18.56092        32.05733         0.45988
C         17.28655        31.36678         0.77497
C         18.53869        33.46711         0.17678
C         17.30557        34.12855         0.02988
C         18.58261        36.32611        -0.44270
C         17.24673        35.54803        -0.35375
C         18.50256        37.79722        -0.38533
C         17.28302        38.42885        -0.58883
C         19.70183         4.57084         0.06551
C         20.87530         6.36392        -1.29095
C         19.70399         5.58996        -0.92208
C         20.86414         7.69720        -1.60756
C         19.68114         8.55209        -1.55261
C         20.94560        10.61630        -0.92736
C         19.70338         9.90034        -1.09850
C         20.98431        11.88816        -0.47041
C         19.75388        12.57435         0.05201
C         20.97921        14.79241        -0.02854
C         19.77271        14.08445        -0.05374
C         20.99794        16.18101         0.07054
C         19.79971        16.90649         0.21032
C         20.99411        19.04110         0.73240
C         19.80859        18.35824         0.42017
C         21.01288        20.42694         0.88579
C         19.84157        21.17967         0.70155
C         21.04062        23.44776         0.47299
C         19.86487        22.66363         0.87982
C         20.99576        24.80386         0.42282
C         19.78001        25.56331         0.63397
C         20.96597        27.75981         0.46125
C         19.77689        27.00175         0.65599
C         20.94984        29.15355         0.37750
C         19.79753        29.90133         0.63661
C         20.99355        32.07911         0.34224
C         19.77755        31.34130         0.49409
C         20.99183        33.45392         0.21698
C         19.78866        34.19445         0.12097
C         20.91582        36.41921         0.29442
C         19.80388        35.63145        -0.00602
C         20.87301        37.83187         0.19636
C         19.71340        38.51041        -0.12576
O          2.94194        27.02700        -1.90936
O         13.52440        37.46610         1.29513
O          2.61601        13.15491        -2.12423
O          8.07361        18.82571        -1.80565
O          7.81312        12.62455         1.61429
O         10.01767        30.71960        -0.95961
O          5.74592        27.29092        -1.72296
O          8.06231        10.01354         1.76678
O         14.87757        22.36436        -1.47096
O          7.30264        30.43807         1.74278
O         10.98440        32.97433         1.88847
O         12.18190        26.12940         2.17141
O          3.05340        25.67923         1.39141
O         12.82978        33.69463        -1.15869
O         13.41098         6.83450        -2.42356
O         17.95328        35.78154        -1.64059
O         18.41873         6.79894        -2.56972
O         19.29873        23.06067         2.19329
O          0.80812        28.45653        -1.80927
O         15.00859        34.81886         1.52135
O         17.20453        30.90775         2.19812
O          7.22255         4.38068        -0.85995
O         17.12636        21.17652        -1.34564
O          1.10597        15.77020        -2.26622
O          9.35848        23.03376        -1.49999
O          4.81107        17.12253         1.43940
H          5.07655        16.26587         1.83343
O          3.74132        20.41178         1.87660
H          3.75806        21.33409         2.23418
O          2.45318         5.40465        -0.95878
H          1.67665         4.87264        -1.23110
O         15.84221         5.88097        -2.86289
H         15.78016         4.90610        -2.93323
O          3.66884         6.39802         2.33745
H          4.47679         6.90757         2.59297
O         19.74696        12.31315         1.51349
H         19.74990        11.33909         1.63133
O          8.51083        16.44189         1.59475
H          9.26920        15.95034         1.97995
O          9.62634         4.94232        -1.99188
H          8.76390         4.46624        -2.04177
O         16.86192        22.20080         2.17180
H         17.64717        22.34058         2.75596
O          7.45511        33.79577        -1.90242
H          6.72200        34.25645        -2.36437
O         12.10212        29.94598         2.58830
H         12.84436        30.46167         2.96925
O         17.22073        16.95866         1.94461
H         17.26813        16.02200         2.23457
O          3.76070        29.52023        -2.31937
H          3.24142        28.82674        -2.78928
O         10.34829        12.94245         1.93583
H          9.50527        13.04198         2.43687
O         11.75511         8.80002        -2.65303
H         11.95583         7.97430        -3.15295
O          5.62611        32.33711         1.96775
H          5.96953        31.56602         2.47799
O         13.73032        19.17628        -2.17259
H         13.06643        19.82336        -2.49453
O          7.51134        13.75203        -1.87007
H          7.38714        14.57804        -2.38429
O          3.73130        23.27802         2.07177
H          3.28500        24.08282         2.43124
O         18.95545        29.10516         2.68275
H         18.59500        29.93756         3.07201
O          9.88146        21.33484         1.70201
H          9.94633        20.41739         2.04175
O          4.74235        18.24748        -2.02764
H          4.93012        19.10801        -2.45776
O          5.99211         7.80366         1.97819
H          6.59661         8.51678         2.28579
O          5.01507         8.14487        -1.54802
H          4.18164         8.43186        -1.97791
O         15.93431        33.18197        -1.66512
H         16.36319        33.94886        -2.10284
H          1.25406         2.44283         1.74346
H         -0.86610         3.72074         1.79288
H         -0.92679         6.13825         1.36810
H         -0.98392         8.02420         0.79861
H         -0.98183        10.38434         0.24545
H         -0.99264        12.18555        -0.48862
H         -1.01778        14.50216        -1.16410
H         -1.04282        16.54086        -0.65179
H         -1.02626        18.84453         0.11190
H         -1.04078        20.76294        -0.12394
H         -1.04841        23.18176        -0.03664
H         -1.06713        25.07015         0.33823
H         -1.15136        27.42367        -0.16151
H         -1.11569        29.42742        -0.07564
H         -1.03987        31.81904         0.37332
H         -1.04250        33.73521         0.13207
H         -0.98413        36.17518        -0.05468
H          0.24783        38.28135        -0.38928
H          3.69478         2.43007         1.50161
H          2.38166        39.51533        -0.65547
H          6.01114         2.34182         1.46910
H          4.84834        39.51668        -0.74560
H          8.83699         2.92293         1.72652
H          7.33201        39.51937        -0.75829
H         11.17548         2.88789         1.23626
H          9.79155        39.51637        -0.75027
H         13.59362         3.03896         1.17005
H         12.23603        39.45389        -1.01965
H         16.02410         3.16583         1.26582
H         14.84330        39.49183        -0.93468
H         18.51529         3.25391         1.28500
H         17.25466        39.52734        -0.64913
H         20.65372         4.22402         0.49307
H         21.85646         5.87403        -1.18091
H         21.84028         8.18661        -1.74779
H         21.88157        10.12033        -1.22083
H         21.95965        12.38075        -0.35719
H         21.93942        14.26189        -0.06800
H         21.96702        16.69715         0.07735
H         21.93067        18.48588         0.87581
H         21.95424        20.93210         1.14220
H         21.96343        22.91772         0.19649
H         21.91271        25.34360         0.14923
H         21.91865        27.24537         0.28013
H         21.87636        29.65677         0.06717
H         21.95796        31.55695         0.38519
H         21.95496        33.97869         0.14910
H         21.85084        35.94824         0.62811
H         21.78540        38.40042         0.42462
H         19.69999        39.60953        -0.14409
