         640
 CSIRO Nanostructure Databank - Neutral Graphene Oxide Data Set
C         23.17767        27.57740         1.67281
C         23.14242        28.94612         1.49314
C         23.06843        31.84020         1.04827
C         23.03101        33.19918         0.81889
C         22.97399        36.09347         0.30639
C         22.96404        37.47137         0.09749
C         22.97393        40.41105        -0.18268
C         22.99378        41.79401        -0.22178
C         23.04961        44.73544        -0.33231
C         23.08073        46.11641        -0.33333
C         25.56120        24.72928         1.44783
C         24.40936        25.43416         1.65957
C         25.57810        27.54839         1.15960
C         24.38153        26.85486         1.49839
C         25.54184        28.96780         0.99946
C         24.31127        29.67332         1.14548
C         25.46620        31.80012         0.57651
C         24.27308        31.10074         0.92757
C         25.42720        33.20219         0.32620
C         24.19467        33.92072         0.43668
C         25.34064        36.01063        -0.43997
C         24.14560        35.33097         0.17967
C         25.38577        37.50256        -0.21180
C         24.16802        38.20834        -0.10698
C         25.41151        40.35631        -0.13457
C         24.17100        39.65837        -0.13961
C         25.43047        41.78853        -0.11969
C         24.20982        42.51878        -0.18328
C         25.47978        44.64799        -0.06852
C         24.23722        43.96811        -0.19671
C         25.51563        46.07935        -0.03861
C         24.30332        46.81414        -0.17760
C         25.52798        48.90837         0.03367
C         24.34586        48.24110        -0.15438
C         27.96451        23.22134         0.72456
C         27.94703        24.64134         0.79148
C         26.78337        25.38388         1.07118
C         28.00690        27.52309         0.68690
C         26.79703        26.82194         0.96481
C         27.98676        28.95942         0.58584
C         26.74929        29.67465         0.69166
C         27.91392        31.78218         0.18608
C         26.70963        31.08130         0.48644
C         27.88692        33.19948        -0.01466
C         26.65147        33.91138         0.02820
C         27.85647        36.01928        -0.33916
C         26.64294        35.30615        -0.18582
C         27.86089        37.47781        -0.32267
C         26.62762        38.19348        -0.23780
C         27.87799        40.31824        -0.03780
C         26.64093        39.62433        -0.13761
C         27.89886        41.74899         0.05257
C         26.67959        42.48369        -0.02241
C         27.94051        44.59611         0.18923
C         26.70305        43.90832         0.03232
C         27.96598        46.03165         0.28158
C         26.74805        46.77471         0.14873
C         27.98521        48.89077         0.47625
C         26.76603        48.20556         0.21058
C         28.02711        50.32445         0.63539
C         30.41281        23.20205         0.45785
C         29.12643        22.54159         0.44521
C         30.45906        24.58035         0.59440
C         29.18654        25.33298         0.28430
C         30.45743        27.48160         0.35608
C         29.23606        26.81414         0.52993
C         30.43973        28.92703         0.19441
C         29.18836        29.65821         0.31082
C         30.34096        31.80204        -0.20762
C         29.14836        31.07399         0.11466
C         30.31496        33.16245        -0.45320
C         29.08916        33.90193        -0.32898
C         30.31177        36.08514        -0.82428
C         29.07039        35.31168        -0.44643
C         30.33984        37.47183        -0.24705
C         29.08996        38.17502        -0.20534
C         30.33896        40.26836         0.19710
C         29.10033        39.59121        -0.01329
C         30.35927        41.68937         0.33140
C         29.13581        42.43052         0.21209
C         30.39317        44.53804         0.46709
C         29.15304        43.85581         0.28365
C         30.40464        45.95910         0.59763
C         29.18587        46.70671         0.50957
C         30.38611        48.80668         1.02664
C         29.20890        48.14990         0.66206
C         30.44184        50.28423         1.30143
C         29.14776        50.98221         1.01200
C         32.78231        20.30149        -0.15366
C         31.60688        21.01023         0.11964
C         32.87905        23.07754         0.24977
C         31.62613        22.39760         0.29893
C         32.94633        24.44981         0.63450
C         31.72726        25.31914         0.97202
C         32.88561        27.54673         0.23701
C         31.73168        26.78838         0.44014
C         32.86165        28.92264        -0.24182
C         31.60567        29.61154        -0.13205
C         32.79749        31.73537        -0.79498
C         31.65985        31.10230        -0.04912
C         32.82381        33.11690        -0.82481
C         31.53225        33.87238        -1.00914
C         32.75319        35.94761        -0.26587
C         31.58646        35.32051        -0.60567
C         32.79662        37.36124         0.06712
C         31.54414        38.10359         0.06133
C         32.75890        40.19846         0.60714
C         31.55288        39.52879         0.31173
C         32.79244        41.60613         0.74019
C         31.58808        42.35749         0.57301
C         32.81424        44.49202         0.83105
C         31.60433        43.80072         0.62699
C         32.82662        45.89897         0.87768
C         31.63005        46.62251         0.83931
C         32.89512        48.77698         0.79111
C         31.65812        48.05662         1.30006
C         32.84540        50.17435         0.46464
C         31.63842        50.91498         0.57159
C         32.78159        52.88147        -0.30837
C         31.62786        52.25445         0.17095
C         35.34307        18.77331        -0.37995
C         35.23235        20.20809        -0.68196
C         34.01343        20.95579        -0.27312
C         35.34447        23.05567        -0.15819
C         34.08250        22.35623        -0.05368
C         35.39264        24.41270         0.25321
C         34.23232        24.94714         0.83414
C         35.35539        27.50243        -0.11648
C         34.22565        27.09368         0.52531
C         35.29119        28.75188        -0.94409
C         34.03343        29.54910        -0.65472
C         35.30071        31.71943        -0.97995
C         34.00923        30.95677        -1.19972
C         35.30264        33.09586        -0.73508
C         34.05638        33.80553        -0.69840
C         35.30353        35.86736         0.15487
C         34.00130        35.15692        -0.13677
C         35.27430        37.33015         0.31369
C         34.00740        37.99386         0.37754
C         35.27778        40.12900         0.79149
C         33.97673        39.38522         0.95686
C         35.24945        41.56995         0.88767
C         34.05666        42.28413         0.94969
C         35.29474        44.49287         0.77773
C         34.06383        43.76523         1.27467
C         35.32460        45.86527         0.76687
C         34.10396        46.62964         1.24027
C         35.30484        48.73797         0.41030
C         34.08467        48.06950         0.75775
C         35.28361        50.11958         0.07757
C         34.04674        50.83459         0.05718
C         35.24736        52.86462        -0.73977
C         34.01274        52.20508        -0.34548
C         35.23179        54.11236        -1.45984
C         37.79079        18.79271        -0.69748
C         36.52731        18.12150        -0.45408
C         37.81997        20.21594        -0.76222
C         36.55681        20.97072        -0.83682
C         37.81074        23.11118        -0.42832
C         36.56149        22.40617        -0.51776
C         37.83115        24.48820        -0.19201
C         36.54068        25.25437        -0.27540
C         37.79032        27.44979        -0.21433
C         36.61201        26.76265        -0.01954
C         37.78546        28.89196        -0.51090
C         36.58719        29.53284        -0.78157
C         37.85716        31.71287        -1.15517
C         36.55668        30.95659        -1.15263
C         37.80606        33.20771        -1.02016
C         36.54435        33.86172        -0.60888
C         37.79606        35.95236        -0.05275
C         36.56552        35.19325        -0.21731
C         37.75924        37.32816         0.34876
C         36.50035        38.01180         0.49755
C         37.73627        40.11767         1.23534
C         36.47403        39.43405         0.76791
C         37.71732        41.60274         0.96468
C         36.52865        42.26346         0.84022
C         37.80265        44.45207         0.39437
C         36.49371        43.70446         0.48713
C         37.77558        45.91478         0.46183
C         36.55365        46.59534         0.52074
C         37.76279        48.72340         0.16133
C         36.54288        48.02605         0.39341
C         37.74571        50.12303        -0.11715
C         36.50827        50.81080        -0.20078
C         37.73516        52.90787        -0.78259
C         36.46811        52.19719        -0.56031
C         37.69185        54.29334        -1.46212
C         36.36727        54.72125        -1.91183
C         40.27435        15.96402        -0.62960
C         39.06763        16.63324        -0.63333
C         40.27108        18.77327        -1.07574
C         38.99908        18.04898        -0.72410
C         40.26788        20.24194        -0.76131
C         39.05491        20.94059        -0.73567
C         40.25593        23.10243        -0.78880
C         39.06848        22.39986        -0.63398
C         40.32819        24.52526        -0.54923
C         39.10075        25.20273        -0.08801
C         40.32726        27.43271        -0.44271
C         39.08829        26.73946        -0.09882
C         40.32589        28.91216        -0.14528
C         39.04431        29.62686        -0.53464
C         40.32504        31.75306        -0.62948
C         39.08568        30.99410        -0.75009
C         40.34135        33.14397        -0.62480
C         39.09231        33.93188        -0.76420
C         40.26884        35.98340        -0.03260
C         39.03983        35.30447        -0.22772
C         40.25574        37.36951         0.29624
C         39.00493        38.05279         0.49426
C         40.23473        40.17253         0.84943
C         39.01306        39.43683         0.79901
C         40.25906        41.58760         1.01484
C         38.98763        42.35287         1.29391
C         40.20872        44.48359         0.84689
C         39.04126        43.76511         0.76620
C         40.24509        45.90114         0.56534
C         39.01842        46.61304         0.41883
C         40.24743        48.70331         0.00881
C         39.00990        48.01872         0.20433
C         40.25120        50.09321        -0.30871
C         38.98392        50.80857        -0.42028
C         40.24117        52.71504        -1.41621
C         38.97642        52.13396        -0.81566
C         40.21692        54.20321        -1.64641
C         38.93810        54.79290        -2.19644
C         40.16217        56.97017        -2.24946
C         38.98903        56.29364        -2.28355
C         42.77770        15.98357        -0.46212
C         41.52801        16.67592        -0.57992
C         42.75959        18.84461        -0.31099
C         41.51983        18.06499        -0.64667
C         42.71978        20.25471        -0.84230
C         41.52537        20.92780        -0.88358
C         42.74682        23.10815        -0.70753
C         41.50441        22.38883        -1.27456
C         42.75901        24.57051        -1.16257
C         41.49658        25.26235        -0.70035
C         42.77756        27.39359        -0.72526
C         41.52154        26.70869        -0.59286
C         42.77730        28.85989        -1.05295
C         41.56002        29.63037        -0.61577
C         42.83675        31.73411        -0.72588
C         41.57731        31.00969        -0.64404
C         42.83678        33.18054        -0.61218
C         41.56682        33.89465        -0.51368
C         42.74424        36.07482        -0.26323
C         41.50906        35.27766        -0.27266
C         42.73933        37.42772         0.30592
C         41.49635        38.08589         0.47091
C         42.72241        40.18563         0.89664
C         41.48613        39.48317         0.73896
C         42.71876        41.61669         1.02625
C         41.47541        42.29064         1.08140
C         42.74891        44.53046         1.07190
C         41.45077        43.77030         1.22241
C         42.72273        45.93478         0.62962
C         41.48395        46.60611         0.46913
C         42.71208        48.69609        -0.03914
C         41.47941        48.00396         0.14097
C         42.70585        50.09602        -0.33586
C         41.46997        50.77444        -0.45310
C         42.73173        52.88533        -1.07255
C         41.44123        52.27818        -0.58223
C         42.69932        54.22752        -1.49558
C         41.42015        54.89768        -1.71177
C         42.64543        56.96998        -2.21274
C         41.42476        56.29624        -2.05869
C         43.98080        16.68014        -0.55938
C         45.25787        18.82018        -0.74775
C         44.02823        18.08254        -0.60011
C         45.24080        20.18917        -0.99724
C         43.97566        20.92377        -1.33928
C         45.23965        23.09675        -0.97753
C         44.04974        22.40286        -1.00528
C         45.24174        24.56125        -0.80457
C         44.03368        25.27348        -0.75285
C         45.26592        27.41322        -0.67141
C         44.01560        26.70037        -0.71860
C         45.26548        28.84961        -0.60801
C         44.05946        29.57002        -0.70512
C         45.33483        31.68828        -0.69581
C         44.03795        30.99390        -0.70100
C         45.33259        33.19329        -0.54287
C         44.03640        33.87455        -0.45655
C         45.26957        35.99700         0.21488
C         44.07191        35.33918        -0.34955
C         45.21148        37.32467         0.63319
C         43.96927        38.07583         0.61904
C         45.18210        40.19705         1.27838
C         43.94202        39.45922         0.94014
C         45.20805        41.66058         1.04992
C         43.96895        42.35504         1.00177
C         45.21113        44.47416         0.75855
C         43.99430        43.76567         0.91810
C         45.19434        45.89751         0.52484
C         43.95151        46.60369         0.40788
C         45.17926        48.69746        -0.09744
C         43.94901        47.99919         0.08658
C         45.16990        50.08939        -0.44470
C         43.94656        50.79070        -0.55696
C         45.18617        52.83791        -1.26237
C         43.94761        52.17637        -0.95090
C         45.17169        54.21870        -1.63187
C         43.92346        54.92750        -1.74743
C         43.86243        56.30396        -2.08753
C         47.72180        18.78071        -0.68655
C         46.53363        18.15146        -0.54317
C         47.80583        20.17408        -1.15879
C         46.48832        20.92790        -1.25285
C         47.73053        23.06741        -1.05415
C         46.51519        22.39742        -1.10002
C         47.71792        24.54707        -1.10900
C         46.47273        25.27553        -0.82431
C         47.75702        27.39628        -0.55917
C         46.49163        26.68962        -0.70766
C         47.74798        28.80582        -0.33496
C         46.52402        29.54105        -0.40934
C         47.76313        31.65612        -0.09413
C         46.55350        30.94378        -0.34996
C         47.75912        33.09056         0.09533
C         46.53827        33.85086         0.00264
C         47.69080        35.88662         0.79875
C         46.47152        35.20287         0.33603
C         47.69046        37.38018         0.58896
C         46.45169        37.92036         1.30938
C         47.74889        40.15961         1.14290
C         46.47809        39.44116         1.38582
C         47.70017        41.63381         1.26046
C         46.42488        42.36235         1.06285
C         47.68543        44.50278         0.70545
C         46.44647        43.76914         0.84464
C         47.65940        45.90964         0.47312
C         46.41542        46.60292         0.35839
C         47.64750        48.69238        -0.16416
C         46.41049        48.00204         0.05353
C         47.61844        50.03909        -0.62302
C         46.41207        50.74861        -0.74852
C         47.66278        52.78464        -1.48119
C         46.41722        52.12353        -1.17988
C         47.61065        54.17735        -1.81287
C         46.42132        54.85795        -1.88759
C         50.26284        20.28391        -0.77482
C         49.04241        20.96277        -0.95158
C         50.24300        23.10573        -0.80270
C         49.00726        22.37775        -0.97934
C         50.26933        24.52747        -0.70955
C         49.04195        25.29682        -0.95767
C         50.21100        27.37986        -0.24760
C         48.98914        26.71126        -0.56271
C         50.18953        28.76992        -0.01054
C         48.97467        29.49932        -0.09702
C         50.22318        31.63212         0.20231
C         48.96800        30.92866         0.05171
C         50.22389        33.06768         0.33258
C         48.98817        33.73853         0.38347
C         50.25083        35.91356         0.76005
C         48.98851        35.15165         0.77849
C         50.20600        37.36238         0.87339
C         48.99954        38.04975         0.92177
C         50.21955        40.19229         0.77570
C         48.96522        39.49064         0.99016
C         50.17156        41.65022         0.54565
C         48.97598        42.40011         1.01313
C         50.15790        44.56219         0.64717
C         48.92872        43.84065         0.71118
C         50.12244        45.97528         0.62491
C         48.89035        46.63685         0.41028
C         50.14568        48.72671        -0.01617
C         48.88569        48.02340         0.06446
C         50.13209        50.17940        -0.43456
C         48.88106        50.58372        -1.23071
C         50.16877        52.67560        -1.68057
C         48.88682        52.07606        -1.44333
C         51.45249        20.97800        -0.64378
C         52.72292        23.10541        -0.52108
C         51.47240        22.38748        -0.65463
C         52.71988        24.51665        -0.38680
C         51.46978        25.23382        -0.42060
C         52.70180        27.34963        -0.04387
C         51.45950        26.64635        -0.22515
C         52.71812        28.75506         0.13257
C         51.43219        29.45894         0.48174
C         52.68306        31.68398         0.13927
C         51.42332        30.93695         0.22571
C         52.69032        33.12175         0.44812
C         51.46070        33.78809         0.53346
C         52.71102        35.93241         1.11768
C         51.43992        35.22138         0.72976
C         52.68228        37.40416         0.78611
C         51.46664        38.08546         0.79581
C         52.66692        40.23214         0.15047
C         51.41701        39.51965         0.63182
C         52.72148        41.71131         0.48535
C         51.45368        42.43645         0.40736
C         52.64673        44.59371         0.65465
C         51.42075        43.88206         0.63366
C         52.65075        46.02465         0.69930
C         51.35950        46.76538         0.96064
C         52.54375        49.04668         0.63083
C         51.32858        48.16114         0.39466
C         52.67411        50.10110        -0.46134
C         51.42331        50.53506        -1.21425
C         51.35392        52.00419        -1.56678
C         55.16201        23.10909        -0.41088
C         53.96777        22.42584        -0.52209
C         55.19331        24.51811        -0.27891
C         53.95584        25.22205        -0.25271
C         55.17227        27.34635         0.09073
C         53.94587        26.64605        -0.09493
C         55.16258        28.75054         0.26627
C         53.94170        29.44479         0.23211
C         55.22703        31.66123         0.43553
C         53.97567        30.92727         0.14569
C         55.20057        33.09430         0.48564
C         53.95392        33.81651         0.53734
C         55.19106        35.93606         0.71816
C         53.97040        35.21446         0.70841
C         55.19158        37.37299         0.75455
C         53.93288        38.12730         0.68895
C         55.21235        40.24785         0.28279
C         53.92797        39.49656         0.50757
C         55.17520        41.71915         0.65764
C         53.90350        42.41645         0.64183
C         55.09098        44.60420         0.78221
C         53.88924        43.87909         0.69522
C         55.09177        46.01913         0.71724
C         53.84860        46.73122         0.67131
C         55.12359        48.86841         0.43688
C         53.86150        48.22763         0.97479
C         55.10784        50.00995        -0.30940
C         53.88735        50.59697        -0.79805
C         57.70159        24.58092        -0.34835
C         56.44532        25.24434        -0.19190
C         57.66606        27.37532         0.08121
C         56.43033        26.63968         0.02009
C         57.68414        28.77668         0.32425
C         56.40882        29.45866         0.74886
C         57.66525        31.65284         0.60780
C         56.41981        30.95516         0.53600
C         57.66687        33.08045         0.66532
C         56.42835        33.80084         0.62453
C         57.66688        35.94454         0.82754
C         56.43102        35.23052         0.70437
C         57.65786        37.37309         0.91190
C         56.40788        38.05622         0.82243
C         57.65463        40.28564         1.09250
C         56.36583        39.52814         0.94621
C         57.63383        41.73820         0.85090
C         56.36339        42.41131         0.82820
C         57.62471        44.59621         0.78024
C         56.35563        43.88002         1.18346
C         57.59749        46.01622         0.70226
C         56.35611        46.73888         0.73315
C         57.61867        48.83519         0.56105
C         56.37659        48.14343         0.62391
C         58.88465        25.27800        -0.32895
C         60.11263        27.41958        -0.10603
C         58.89738        26.68729        -0.12170
C         60.11024        28.78001         0.11097
C         58.89655        29.48513         0.35267
C         60.09582        31.65416         0.71543
C         58.89826        30.93163         0.58260
C         60.09863        33.04002         0.83359
C         58.90264        33.78570         0.79003
C         60.09976        35.97115         1.02094
C         58.90163        35.23197         0.87673
C         60.09571        37.35255         1.09082
C         58.89249        38.09907         1.02812
C         60.09061        40.30199         0.91699
C         58.91769        39.53965         1.03629
C         60.06204        41.69542         0.83251
C         58.85213        42.43575         0.78517
C         60.04322        44.62908         0.46514
C         58.83812        43.89968         0.66691
C         60.04027        46.00616         0.43252
C         58.82489        46.72888         0.55128
C         58.81191        48.15118         0.52337
O         56.75869        39.97285         2.26852
O         37.27812        31.25330        -2.42202
O         45.54834        32.56839        -1.86359
O         47.18757        20.43204        -2.46427
O         38.50032        33.87601        -2.12828
O         43.50651        36.00781        -1.52833
O         35.72395        20.59765        -2.00192
O         48.43942        25.05768        -2.28387
O         37.85534        54.18538        -0.03395
O         39.22642        25.97199         1.16951
O         37.12079        43.93092        -0.82464
O         45.77554        39.88126         2.60869
O         48.24209        35.40460         2.05182
O         34.08954        46.61800         2.68372
O         34.35440        26.14344         1.55040
O         34.56399        35.18140         1.23636
O         50.60436        42.03316        -0.80487
O         53.41002        31.37473        -1.14933
O         48.54687        42.11224         2.38246
O         42.11682        44.30859         2.39963
O         37.72338        39.97536         2.71798
H         36.83843        40.27171         3.02645
O         43.87128        20.88403        -2.81904
H         44.76224        21.08181        -3.18424
O         36.26055        25.28430        -1.73853
H         36.21308        24.35541        -2.05525
O         38.79232        54.27164        -3.57864
H         39.44700        54.74410        -4.13685
O         30.70634        50.47136         2.72629
H         31.22866        49.68296         3.03403
O         52.73579        35.86750         2.59748
H         51.88927        36.24424         2.92213
O         42.58533        23.08009         0.73392
H         43.35747        23.52697         1.13967
O         31.70195        25.45976         2.42798
H         32.57643        25.83157         2.68502
O         51.35823        46.94952         2.44273
H         50.55008        47.45948         2.66939
O         42.72193        28.88610        -2.54529
H         42.82451        29.82286        -2.82301
O         29.06856        25.25356        -1.20149
H         28.95673        24.30406        -1.42657
O         48.91337        49.96739        -2.56943
H         48.12283        50.28147        -3.05751
O         56.36357        29.30827         2.22021
H         56.39331        28.34753         2.41669
O         56.34173        43.92181         2.65753
H         57.06286        43.33721         2.97512
O         47.47374        37.64368        -0.82561
H         48.27146        37.37077        -1.32517
O         42.72632        18.99286         1.17473
H         42.79099        18.08959         1.55350
O         38.94176        42.49366         2.75823
H         38.75004        41.59140         3.11629
O         41.48403        22.43537        -2.71330
H         42.30215        21.98509        -3.03834
O         41.22080        52.80780         0.75765
H         41.97809        52.54217         1.31968
O         52.23249        49.83376         1.82834
H         52.93938        49.61776         2.49280
O         51.51856        49.78047        -2.45172
H         50.63810        49.81821        -2.89821
O         55.46220        40.18737        -1.16011
H         54.58349        40.28342        -1.60256
O         33.91754        30.80125        -2.68515
H         33.93093        31.70171        -3.07765
O         53.98604        48.23542         2.43316
H         53.29463        47.61616         2.77401
O         51.37353        29.34925         1.97152
H         50.51263        29.72557         2.25610
O         33.87651        39.17322         2.42013
H         34.51136        38.46311         2.65723
O         40.31434        18.72529        -2.56853
H         39.54638        19.24418        -2.89356
O         34.06904        43.88788         2.72991
H         34.07981        44.88107         2.92167
O         35.22885        28.39494        -2.35572
H         34.93917        29.20064        -2.84879
O         46.47300        37.41279         2.65461
H         46.03270        38.08604         3.22413
O         40.36669        52.10584        -2.73811
H         39.70859        52.55786        -3.32049
O         32.03003        31.34712         1.37683
H         31.32887        30.94066         1.93088
O         30.19567        36.28709        -2.29891
H         30.88922        36.93045        -2.56041
O         42.79461        24.60533        -2.61418
H         42.74834        25.54473        -2.89200
O         31.36231        33.85162        -2.47054
H         30.73893        34.58816        -2.70090
O         50.05980        50.99964         0.75080
H         50.81354        50.75244         1.34386
O         40.39350        28.97134         1.33394
H         39.85625        28.22857         1.68852
O         31.80680        48.00238         2.76285
H         32.67824        47.49590         2.93522
O         25.12605        35.86080        -1.90853
H         24.27539        36.30467        -2.11565
O         52.60491        40.20575        -1.33276
H         51.83986        40.78998        -1.57331
H         22.26106        27.03324         1.94226
H         22.18585        29.46831         1.62415
H         22.13518        31.33361         1.32654
H         22.07085        33.72168         0.92214
H         22.03155        35.61439         0.60658
H         22.01079        38.00472         0.20728
H         22.00193        39.90033        -0.20396
H         22.03519        42.32758        -0.26678
H         22.08070        44.23179        -0.44764
H         22.14828        46.68809        -0.44558
H         25.54873        23.63865         1.57329
H         23.48365        24.91433         1.94592
H         25.51490        50.00575         0.05279
H         23.40868        48.80235        -0.27980
H         27.04037        22.64625         0.87320
H         27.10574        50.90427         0.48758
H         29.08217        21.44941         0.34909
H         29.09501        52.06343         1.20323
H         32.71562        19.21778        -0.31997
H         30.66701        20.44642         0.17758
H         32.72281        53.93867        -0.60103
H         30.70468        52.84548         0.24326
H         34.44396        18.22395        -0.06649
H         34.26041        54.51125        -1.78594
H         36.54272        17.04384        -0.24300
H         36.29553        55.53341        -2.64997
H         40.29064        14.86592        -0.57686
H         38.14408        16.04216        -0.55917
H         40.17166        58.06349        -2.37708
H         38.04562        56.83553        -2.44553
H         42.78012        14.88545        -0.42552
H         42.63805        58.03964        -2.46880
H         44.90975        16.09916        -0.64937
H         44.78686        56.87325        -2.25058
H         48.64281        18.24986        -0.40813
H         46.52868        17.11224        -0.18643
H         48.54191        54.71774        -2.02810
H         46.44413        55.92153        -2.15969
H         50.28822        19.18673        -0.77180
H         50.20910        53.74301        -1.94634
H         52.38060        20.40582        -0.52325
H         52.28719        52.54647        -1.78265
H         56.09615        22.53283        -0.42441
H         54.00356        21.33447        -0.63148
H         56.05209        50.42451        -0.69031
H         53.97612        51.39383        -1.55031
H         57.73099        23.49635        -0.51562
H         57.62398        49.93379         0.53818
H         59.83927        24.75224        -0.47482
H         61.06034        26.88782        -0.27335
H         61.06705        29.31848         0.10409
H         61.06090        31.13074         0.73232
H         61.06518        33.54892         0.94378
H         61.06478        35.45093         1.07985
H         61.05521        37.87406         1.20768
H         61.06972        39.80459         0.88257
H         61.02323        42.22267         0.77375
H         60.99618        44.09578         0.35147
H         60.98188        46.55886         0.30321
H         59.76501        48.69532         0.45766
