         666
 CSIRO Nanostructure Databank - Neutral Graphene Oxide Data Set
C          6.04504        31.36977        -0.72305
C          6.11220        32.64841        -0.27127
C          8.39441        27.32406        -1.90286
C          8.37769        28.69642        -1.94272
C          7.17894        29.39314        -1.61319
C          8.40177        31.52893        -1.54181
C          7.19521        30.74154        -1.32312
C          8.37700        32.90996        -1.26583
C          7.28463        33.46473        -0.51925
C          8.44225        35.64620        -0.34225
C          7.37157        34.72744         0.04142
C          8.68753        36.84093         0.47158
C         10.89529        23.02265        -1.53669
C         10.86327        24.50411        -1.30173
C          9.63856        25.22700        -1.78097
C         10.86299        27.35941        -1.32622
C          9.62179        26.58841        -1.75940
C         10.89114        28.79358        -1.81468
C          9.63145        29.45239        -2.31842
C         10.83700        31.67621        -1.97727
C          9.60485        30.91770        -1.96789
C         10.81226        33.06564        -1.89060
C          9.46432        33.76382        -1.88773
C         10.69824        36.04142        -1.58992
C          9.46971        35.19678        -1.34757
C         10.69068        37.35091        -0.87571
C          9.75274        37.66977         0.21210
C         10.92665        39.82440         0.62811
C          9.84044        38.97418         0.83208
C         10.97400        41.18367         0.99451
C         13.33152        18.72917        -1.04795
C         13.28176        20.24007        -1.13532
C         12.12946        20.88466        -1.42415
C         13.34541        23.04453        -1.68303
C         12.07980        22.34015        -1.54008
C         13.29500        24.44059        -2.24541
C         12.11195        25.23842        -1.72767
C         13.42276        27.33394        -1.58642
C         12.11836        26.59002        -1.69742
C         13.34932        28.81851        -1.86881
C         12.09977        29.51792        -1.88290
C         13.33810        31.67202        -2.04333
C         12.10964        30.95906        -2.01105
C         13.36366        33.12961        -2.06704
C         12.08376        33.85932        -1.66414
C         13.32544        36.05358        -1.95858
C         12.00950        35.35997        -2.02087
C         13.45422        37.43535        -1.89556
C         11.64626        38.28933        -1.11405
C         13.28251        40.09837        -0.38371
C         12.12871        39.19091        -0.01750
C         13.28448        41.39208         0.08729
C         12.11108        41.98041         0.72727
C         13.30932        44.12334         1.08617
C         12.12373        43.34306         1.09262
C         13.32128        45.46304         1.54912
C         15.70593        15.16662         1.42419
C         15.70372        16.45412         0.92847
C         14.53020        17.01746         0.34408
C         15.80918        18.90470        -0.53427
C         14.57112        18.22076        -0.34399
C         15.77602        20.17828        -1.34631
C         14.56360        21.00932        -0.88698
C         15.80317        23.06304        -1.71977
C         14.54305        22.39886        -1.48744
C         15.78818        24.49872        -1.99014
C         14.60172        25.17817        -2.11876
C         15.83983        27.39754        -2.13936
C         14.54333        26.66442        -2.38798
C         15.80979        28.77295        -2.01621
C         14.55444        29.51291        -1.99077
C         15.82596        31.63727        -2.06917
C         14.56852        30.94220        -2.02502
C         15.79824        33.03846        -2.37042
C         14.56395        33.80271        -2.25674
C         15.82015        36.06116        -1.90871
C         14.57891        35.33364        -2.42469
C         15.77063        37.27598        -1.00650
C         14.57631        38.13606        -1.33471
C         15.77402        40.12171        -0.51794
C         14.51767        39.44166        -0.82569
C         15.77414        41.46205        -0.14841
C         14.49218        42.26364        -0.16543
C         15.76427        44.12228         0.97893
C         14.54040        43.50874         0.68669
C         15.78783        45.49137         1.48013
C         14.52089        46.18863         1.68093
C         15.73140        48.27560         2.25963
C         14.53397        47.53964         2.09514
C         15.74199        49.61096         2.64377
C         18.10020        11.17280         3.11719
C         18.12346        12.50898         2.62331
C         16.90962        13.20921         2.34542
C         18.16916        15.19793         1.66199
C         16.91755        14.50861         1.84060
C         18.21275        16.53396         1.18289
C         16.93281        17.32687         1.05876
C         18.23994        19.07679        -0.22455
C         17.00162        18.43782         0.03297
C         18.27324        20.28745        -0.97460
C         17.06816        20.95789        -1.30714
C         18.27506        23.07575        -1.87205
C         17.01338        22.34682        -1.61925
C         18.24215        24.54418        -1.99993
C         17.05552        25.21963        -2.13274
C         18.28969        27.35703        -2.37628
C         17.07766        26.66973        -2.24380
C         18.37446        28.73692        -1.88679
C         17.06015        29.50430        -1.76254
C         18.32339        31.64834        -2.06651
C         17.06996        30.96741        -1.95029
C         18.30946        33.05704        -2.36157
C         17.04761        33.59049        -2.71138
C         18.31802        36.11715        -1.89182
C         17.04112        35.70443        -2.39470
C         18.30268        37.41830        -1.31658
C         17.06135        38.06771        -1.04980
C         18.26096        40.17106        -0.63201
C         17.03305        39.42891        -0.71464
C         18.25414        41.50443        -0.15901
C         17.00600        42.14761         0.12153
C         18.25797        44.02976         1.13355
C         16.98817        43.44150         0.68889
C         18.25253        45.43134         1.68633
C         16.97847        46.15428         1.69817
C         18.21471        48.08624         2.73470
C         17.04688        47.65021         1.85203
C         18.18098        49.50969         3.22643
C         16.96437        50.32872         2.92029
C         18.20637        52.50094         3.34265
C         16.98469        51.69492         2.97061
C         18.26226        53.84659         2.65377
C         20.43789         7.28039         5.11264
C         20.45447         8.53468         4.46018
C         19.26131         9.21409         4.09655
C         20.56425        11.08880         3.19601
C         19.28668        10.47062         3.45370
C         20.63272        12.37422         2.40340
C         19.35849        13.17428         2.41113
C         20.61554        15.25839         1.91511
C         19.38695        14.52850         1.98357
C         20.65248        16.56252         1.40972
C         19.43014        17.18941         1.01016
C         20.80443        18.94044        -0.08200
C         19.45113        18.65335         0.60573
C         20.84485        20.35283        -0.68789
C         19.58222        20.95526        -1.20577
C         20.84059        23.17683        -1.50641
C         19.58699        22.39349        -1.63497
C         20.73848        24.67634        -1.63997
C         19.51790        25.17988        -2.37755
C         20.84446        27.37489        -3.02484
C         19.51311        26.64192        -2.77532
C         20.70480        28.92342        -2.91898
C         19.71652        29.46153        -1.87580
C         20.75099        31.71111        -2.30783
C         19.57784        30.97213        -2.08820
C         20.73873        33.15316        -2.23021
C         19.50997        33.86403        -2.28708
C         20.74420        35.96834        -1.80599
C         19.52191        35.32217        -2.06136
C         20.81649        37.37383        -1.23861
C         19.52361        38.14504        -1.20325
C         20.71753        40.32272        -1.09445
C         19.49557        39.50545        -0.93991
C         20.72737        41.73405        -0.61006
C         19.48366        42.26176        -0.00875
C         20.71853        44.39222         0.44240
C         19.50936        43.49268         0.58400
C         20.76129        45.55938         1.40968
C         19.53489        46.17876         1.80103
C         20.76948        48.01239         2.86917
C         19.50409        47.38893         2.48258
C         20.74885        49.46272         3.35801
C         19.45721        50.25253         3.66216
C         20.66512        52.25907         2.78505
C         19.47729        51.67067         3.12288
C         20.82130        53.54321         2.00988
C         19.10136        54.85223         3.06411
C         20.58819        56.53730         1.87326
C         19.36779        56.05428         2.23934
C         20.64787        57.80748         1.04942
C         22.82345         4.79888         6.56682
C         21.63285         5.39923         6.19324
C         22.89838         7.23893         5.15199
C         21.63528         6.64345         5.49299
C         22.92830         8.45619         4.44633
C         21.72614         9.13697         4.15424
C         23.01859        11.16322         3.48463
C         21.73172        10.44402         3.55513
C         23.04679        12.55504         2.98348
C         21.86990        13.19335         2.69107
C         23.08100        15.39258         2.39476
C         21.78132        14.69813         2.68396
C         23.09833        16.69971         1.99334
C         21.90660        17.34217         1.42796
C         23.12916        19.55357         1.10841
C         21.96686        18.58199         0.83879
C         23.18738        20.67021         0.09159
C         21.89681        21.36029        -0.18879
C         23.24403        23.36585        -1.06926
C         21.99697        22.61083        -1.04649
C         23.23678        24.73112        -1.53185
C         22.03208        25.39494        -1.92617
C         23.27515        27.45365        -2.41458
C         22.03954        26.73686        -2.32361
C         23.26553        28.90458        -2.65674
C         22.04108        29.60882        -2.69020
C         23.23085        31.73407        -2.44327
C         22.01230        31.00963        -2.50743
C         23.20090        33.12467        -2.11735
C         21.99358        33.83557        -2.03425
C         23.20318        35.96639        -1.60056
C         22.00138        35.26940        -1.80564
C         23.32088        37.44578        -1.89951
C         21.99858        38.18893        -1.75324
C         23.26180        40.31355        -0.96967
C         22.01420        39.64522        -1.41006
C         23.24036        41.60688        -0.41267
C         22.01951        42.35728        -0.23015
C         23.24844        44.28519         0.67378
C         22.01646        43.61941         0.34580
C         23.25441        45.58100         1.26738
C         22.00086        46.20255         1.66313
C         23.25274        48.14410         2.55190
C         22.02744        47.44534         2.34840
C         23.23912        49.51769         2.95090
C         21.99118        50.21442         3.12356
C         23.16257        52.41377         3.26523
C         21.93353        51.59036         2.98360
C         23.07782        53.83985         2.80233
C         21.90600        54.46421         2.48412
C         23.02316        56.66603         2.30495
C         21.87133        55.90290         2.20661
C         23.05717        58.05336         1.87520
C         21.91422        58.61441         1.25274
C         23.13953        60.67220         0.85660
C         21.96881        59.91744         0.74801
C         24.06233         5.40250         6.28200
C         25.37767         7.28819         5.37633
C         24.12922         6.61483         5.57647
C         25.46847         8.47392         4.64829
C         24.24654         8.92051         3.86162
C         25.57603        11.00971         3.16826
C         24.28845        10.42567         3.70136
C         25.53054        12.51624         3.06919
C         24.32933        13.21806         2.96484
C         25.51067        15.16918         1.97832
C         24.36063        14.72080         2.85164
C         25.59423        16.57333         1.73103
C         24.40601        17.40562         1.88027
C         25.70575        19.23974         0.60134
C         24.47097        18.81306         1.34797
C         25.66482        20.75383         0.33076
C         24.45827        21.20746        -0.50346
C         25.65740        23.48923        -0.69554
C         24.44764        22.73719        -0.69373
C         25.67334        24.79770        -1.20635
C         24.46704        25.43205        -1.65442
C         25.77199        27.48705        -2.22036
C         24.47015        26.78187        -2.12058
C         25.78565        28.94995        -2.55138
C         24.47895        29.64540        -2.66310
C         25.72530        31.80729        -2.51381
C         24.47904        31.05343        -2.57155
C         25.74115        33.14445        -2.14734
C         24.46495        33.75455        -1.72377
C         25.77027        35.95343        -1.36655
C         24.44817        35.23692        -1.38949
C         25.73919        37.42307        -1.12545
C         24.45531        38.15900        -1.18214
C         25.73127        40.10997        -0.32600
C         24.46179        39.51024        -0.91767
C         25.70926        41.61389        -0.26146
C         24.48198        42.27066        -0.06265
C         25.71956        44.30243         0.61253
C         24.47944        43.62486         0.39373
C         25.72512        45.61657         1.16652
C         24.49076        46.23525         1.53221
C         25.70393        48.24384         2.34678
C         24.49342        47.54219         2.15062
C         25.68381        49.58139         2.77264
C         24.45124        50.27090         2.92585
C         25.64942        52.41453         2.75358
C         24.45196        51.70190         2.94062
C         25.62870        53.87824         2.54015
C         24.33402        54.60112         2.62504
C         25.57344        56.76508         2.62852
C         24.26787        56.06871         2.94709
C         25.51129        58.27463         2.61392
C         24.25139        58.81510         1.96244
C         24.27250        60.12094         1.45853
C         26.66400         9.23190         4.57930
C         27.96185        11.23246         3.91070
C         26.77664        10.49244         3.94205
C         28.03734        12.52612         3.28033
C         26.79885        13.15204         2.89296
C         28.10727        15.08995         1.91969
C         26.84188        14.37068         2.12853
C         28.09524        16.34190         1.38078
C         26.90153        17.25020         1.55492
C         28.05684        18.68007        -0.07692
C         26.79466        18.38489         0.56769
C         28.04447        20.82552        -0.54925
C         26.92748        21.45011        -0.11671
C         28.21207        23.51807        -0.70797
C         26.94669        22.95799        -0.06667
C         28.20012        24.79378        -1.21192
C         26.94207        25.45493        -1.46975
C         28.22381        27.01023        -2.81498
C         26.96967        26.61008        -2.22863
C         28.21163        29.14452        -3.30706
C         26.99665        29.72709        -2.95089
C         28.20529        31.82325        -2.77762
C         26.98918        31.12826        -2.75039
C         28.16604        33.31613        -2.93465
C         26.95003        33.94787        -2.25944
C         28.14643        36.14083        -2.31200
C         26.95980        35.29397        -1.98322
C         28.15388        37.58188        -1.90286
C         26.96188        38.22302        -1.31734
C         28.20536        40.31382        -1.07726
C         26.98303        39.53744        -0.96548
C         28.12334        41.75942        -0.85635
C         26.91185        42.34745        -0.25671
C         28.20390        44.36665         0.39228
C         26.93913        43.68246         0.20597
C         28.18338        45.65368         1.05390
C         26.98890        46.26849         1.39600
C         28.23523        48.21148         2.50000
C         27.00144        47.72879         1.77409
C         28.28512        49.59050         2.95576
C         26.92492        50.33460         3.02926
C         28.13861        52.51768         2.76761
C         26.90620        51.77379         2.82367
C         28.07474        53.97350         2.74535
C         26.88507        54.64915         2.66604
C         26.76115        56.09983         2.58581
C         29.25901        13.17469         3.01949
C         30.52147        15.21716         2.37089
C         29.35727        14.46832         2.38822
C         30.52803        16.67924         1.93434
C         29.41623        16.90849         0.91424
C         30.48553        19.27614         0.50865
C         29.30102        18.30910         0.37085
C         30.54558        20.56238        -0.32820
C         29.38648        21.36303        -0.49676
C         30.68812        23.30227        -1.08547
C         29.44872        22.75409        -0.69472
C         30.65878        24.64501        -1.70399
C         29.50478        25.56048        -1.35997
C         30.70651        27.39458        -2.89803
C         29.45419        26.69501        -2.34681
C         30.68471        28.94545        -2.76349
C         29.47510        29.71461        -2.99319
C         30.67068        31.82494        -2.52843
C         29.44626        31.12594        -2.75736
C         30.65795        33.27150        -2.43128
C         29.46021        33.97591        -2.55042
C         30.72923        36.10819        -2.13725
C         29.48177        35.47041        -2.70480
C         30.71784        37.49595        -1.62753
C         29.43681        38.23976        -1.50805
C         30.69377        40.41522        -1.21395
C         29.43146        39.71451        -1.33117
C         30.70952        41.77865        -0.90734
C         29.44113        42.52376        -0.75888
C         30.70170        44.46784         0.15825
C         29.40868        43.77969         0.00037
C         30.73658        45.80036         0.82558
C         29.48104        46.24561         1.49805
C         30.82228        48.29630         2.50966
C         29.51016        47.53719         2.25354
C         30.66238        49.78483         2.30656
C         29.49272        50.41244         2.65199
C         29.35898        51.84985         2.67922
C         31.87927        17.18580         1.36572
C         32.97087        19.14965         0.27621
C         31.80731        18.54253         0.63680
C         33.04544        20.48963        -0.29009
C         31.79329        21.18397        -0.57186
C         33.14455        23.10736        -1.59792
C         31.84187        22.51034        -1.08388
C         33.11245        24.63800        -1.38042
C         31.94131        25.29476        -2.08368
C         33.11282        27.43143        -2.07700
C         31.95338        26.75754        -2.29892
C         33.08709        28.92956        -1.93017
C         31.85406        29.64079        -2.46744
C         33.10135        31.81421        -2.21251
C         31.87991        31.09432        -2.42292
C         33.11870        33.23335        -2.09473
C         31.90849        33.97389        -2.26329
C         33.22722        36.16694        -2.24610
C         31.91685        35.40816        -2.15748
C         33.18941        37.55836        -1.63957
C         31.97799        38.26222        -1.52632
C         33.19061        40.32950        -1.12310
C         31.95401        39.65740        -1.27185
C         33.24018        41.84190        -1.08919
C         31.95025        42.46506        -0.60302
C         33.15632        44.19673         0.76105
C         31.95446        43.70475        -0.01660
C         33.20567        45.68105         1.00299
C         32.03343        46.39941         1.26540
C         32.02273        47.68585         1.82023
C         34.25310        21.15126        -0.42885
C         35.51893        23.23877        -0.85389
C         34.35837        22.50507        -0.92129
C         35.62892        24.62782        -1.29704
C         34.40623        25.35296        -1.61912
C         35.62613        27.46428        -1.85978
C         34.37630        26.72022        -1.82795
C         35.64760        28.82445        -2.03544
C         34.39459        29.57258        -2.33877
C         35.60558        31.72670        -1.78011
C         34.38166        31.07823        -2.32483
C         35.56617        33.20934        -1.48097
C         34.34466        33.95287        -1.80983
C         35.64372        36.03348        -1.58167
C         34.41873        35.35440        -1.80193
C         35.69578        37.52942        -1.83035
C         34.40622        38.23856        -1.47001
C         35.70389        40.39308        -1.35609
C         34.40115        39.62353        -1.22844
C         35.67221        41.68082        -0.58872
C         34.48062        42.37574        -0.39085
C         34.44294        43.58551         0.31197
C         36.82668        25.29057        -1.33896
C         38.08933        27.47730        -1.35367
C         36.93060        26.68316        -1.90336
C         38.13790        28.84230        -1.49495
C         36.94430        29.55029        -2.02747
C         38.09415        31.76888        -1.34304
C         36.93269        31.06440        -1.92054
C         38.04788        33.16250        -1.14143
C         36.84591        33.91225        -1.33234
C         38.08086        36.02928        -1.01984
C         36.84685        35.32131        -1.33258
C         38.07498        37.41471        -0.92481
C         36.90884        38.19894        -1.21956
C         36.89568        39.54656        -1.00147
C         39.28531        29.62063        -1.12288
C         40.46064        31.74712        -0.65062
C         39.28316        31.01757        -1.06685
C         40.45345        33.10562        -0.53722
C         39.26023        33.87658        -0.79076
C         39.25435        35.26220        -0.72779
O         17.87771        48.38106         4.12236
O         17.07574        34.77344        -3.45014
O         35.37177        32.17130        -0.41992
O         31.16036        24.56492        -3.08605
O         24.64428        18.59015         2.80974
O         12.37801        38.25209        -2.29329
O         18.27855        44.27028         2.60216
O         27.64315        49.88759         4.23469
O         27.88224        37.22307        -3.30223
O         24.89262        54.28667         1.30433
O         23.72456        11.13602         4.82230
O         25.96922        14.28139         0.92956
O         19.43120        25.56380        -3.78015
O         29.97670        37.54825        -0.31515
O         29.59270        46.20194         2.96765
O         37.19451        30.40200        -3.19419
O         20.57934        20.27522        -2.10903
O         27.96260        19.56976        -1.13789
O         24.41074        34.22561        -0.33031
O         30.65927        45.76418        -0.62993
O         21.86138        39.14529        -2.82518
O         33.47721        36.38104        -3.64241
O         20.90045        48.37556         4.31140
O         25.97166        36.48648         0.00691
O         19.04210        22.49120        -3.00752
O         17.74221        28.95926        -0.57213
O         25.94433        28.49711        -1.12931
O         34.46463        30.32208        -3.58006
O         20.54088        41.45116        -2.03680
O         28.14210        27.88502        -3.91167
O          8.31456        35.94475        -1.84007
O         28.62022        42.55777        -1.98047
O         20.40919        53.63898         0.85920
O         11.07365        35.89345        -2.99613
O         19.38424        50.35005         5.11243
H         19.28216        49.42436         5.43710
O         20.31068        29.23819        -0.58178
H         19.58381        29.29453         0.08033
O         21.30913        21.90417         1.04293
H         21.66714        21.39121         1.81178
O         26.67621        58.84002         2.01236
H         26.68487        58.58886         1.06619
O         24.64134        20.63651        -1.83429
H         23.86196        20.87429        -2.38003
O         35.79989        40.70687        -2.79757
H         35.82787        39.83427        -3.26351
O         18.16044        52.73275         4.78983
H         18.40343        51.87763         5.22995
O         32.43824        16.20175         0.49453
H         31.74136        15.95990        -0.15801
O         20.53195        45.03408        -0.87445
H         21.38195        45.45248        -1.12858
O         25.39952        21.28792         1.67254
H         26.03449        20.87179         2.29447
O         30.23724        17.46141         3.12609
H         29.27603        17.35966         3.32788
O         29.80867        16.10415        -0.25725
H         29.10360        16.18747        -0.93426
O         27.08739        48.43548         0.45884
H         27.74467        47.96296        -0.09753
O         23.71807        37.49116        -3.30379
H         23.27514        38.28914        -3.68672
O         12.14670        33.92377        -0.18102
H         12.37359        33.02679         0.14782
O         17.38653        48.18791         0.53074
H         16.65236        47.97159        -0.08245
O         27.25148        17.91604         2.85099
H         26.39658        18.28572         3.19850
O         15.56361        36.83987         0.38539
H         14.67059        37.13695         0.67402
O         20.77796        11.95628         0.98889
H         21.49994        11.29325         0.94501
O         30.78192        27.13389        -4.32013
H         29.91079        27.37952        -4.70728
O         29.61958        35.66138        -4.16615
H         29.23635        36.55063        -4.36824
O         12.70315        38.25961         0.98878
H         12.77717        38.75680         1.83182
O         21.17968        37.19170         0.17903
H         20.53598        36.57062         0.58174
O         20.38399        25.08209        -0.25932
H         21.03733        24.67800         0.35336
O         14.53089        35.52885        -3.87523
H         15.39219        35.20951        -4.23527
O         26.96756        23.45634         1.30065
H         26.21731        23.01081         1.76342
O         24.32025         8.30648         2.54517
H         25.01652         8.78422         2.03396
O         16.80675        18.03634         2.35351
H         16.59167        17.36339         3.03474
O         21.20608        27.15947        -4.42455
H         20.80649        26.29278        -4.68599
O         21.50283        15.03496         4.10595
H         21.29414        15.99355         4.14259
O         24.07857        56.17407         4.38997
H         23.71836        57.06233         4.59253
O         33.36498        42.25880        -2.48305
H         34.18768        41.83477        -2.83537
O         27.98160        33.53861        -4.37740
H         28.53499        34.32532        -4.62856
O         32.82093        24.84892         0.04257
H         33.59280        24.52506         0.55499
O         10.85071        27.41564         0.14218
H         10.82151        26.46740         0.44094
O         13.31618        18.19776        -2.38788
H         14.05251        18.64431        -2.87283
O         33.05329        29.15264        -0.47752
H         32.29472        28.65115        -0.10858
O         24.66387        15.24806         4.17943
H         23.91434        15.00052         4.76456
O         20.17543        29.38901        -4.17790
H         20.58173        28.81726        -4.87454
O          9.09330        33.87330        -3.30182
H          8.51430        34.66794        -3.37254
O         25.76963        39.69198         1.07697
H         25.80089        38.70978         1.09761
O         19.71522        54.82406         4.27302
H         19.35459        54.04234         4.77108
O         20.53821        57.47236        -0.34969
H         21.19127        56.76906        -0.54590
O         31.11244        48.12861         3.93270
H         30.85265        47.20581         4.16067
O         10.84218        24.64269         0.19059
H         10.04318        24.17057         0.51012
O         15.54057        19.84199        -2.75353
H         16.39270        19.55422        -3.14459
O         14.19781        26.83859        -3.80195
H         14.98105        26.58302        -4.33457
O          9.69678        29.35995        -3.79449
H         10.35260        30.02145        -4.10296
O         37.22735        26.50393        -3.33660
H         37.23835        27.39411        -3.75090
O         20.90756        17.98750        -1.16638
H         20.72024        18.48137        -2.00241
O         23.17101        52.53093         4.74352
H         23.23172        51.62387         5.11382
O         13.04013        24.29934        -3.68615
H         13.15050        25.20196        -4.07289
O         14.71271        21.16815         0.55197
H         13.98915        21.74772         0.86987
O         19.37408        19.43364         1.82468
H         18.50084        19.23033         2.23893
O         33.26099        22.81635        -3.00558
H         32.48035        23.22406        -3.45220
O         25.71639        10.51731         1.79403
H         26.52642        10.92068         1.41387
O         30.23185        19.84394         1.84750
H         30.29673        19.10016         2.50669
O         29.80310        26.11664        -0.04401
H         29.67763        25.40895         0.62383
O         22.75196        20.16341         2.39336
H         23.27723        19.69457         3.08975
O         13.77668        27.22791        -0.17715
H         12.97279        27.47990         0.33488
O         32.90724        43.61832         2.12738
H         33.05433        42.64923         2.06745
O         14.36635        42.77313        -1.54496
H         14.31015        41.99464        -2.13988
O         35.79536        37.67499        -3.28310
H         34.96234        37.22005        -3.64855
H          5.13788        30.76640        -0.57379
H          5.26055        33.10851         0.24987
H          7.44524        26.77406        -1.79821
H          6.26902        28.80543        -1.41590
H          6.57955        35.08947         0.71298
H          7.95662        37.10012         1.25127
H          9.94669        22.46794        -1.45421
H          8.73119        24.65941        -2.03974
H          8.96873        39.33363         1.39940
H         10.10133        41.64343         1.48195
H         12.41613        18.33951        -0.53263
H         11.19231        20.32073        -1.55173
H         11.20335        43.78666         1.50132
H         12.36732        45.95064         1.79946
H         14.77116        14.58491         1.41911
H         13.59249        16.44192         0.38109
H         13.57727        48.03108         2.32943
H         14.78886        50.15243         2.74685
H         17.12670        10.69401         3.30063
H         15.95040        12.69013         2.48949
H         16.05130        52.24313         2.76930
H         17.84118        53.90874         1.64140
H         19.47385         6.80131         5.34061
H         18.29089         8.75199         4.33318
H         18.47855        56.59059         1.86640
H         19.76143        58.45104         1.28647
H         22.80475         3.84383         7.11067
H         20.67163         4.92611         6.44073
H         23.17115        61.69795         0.46410
H         21.08173        60.34383         0.25875
H         24.99165         4.92122         6.61949
H         26.27521         6.88453         5.87134
H         25.51308        58.61927         3.68949
H         25.20085        60.70475         1.53347
H         27.54963         8.84290         5.10817
H         28.87453        10.80886         4.35725
H         29.02257        54.53154         2.78523
H         27.68679        56.68749         2.47192
H         30.19102        12.68765         3.34397
H         31.42044        14.82624         2.87194
H         31.54492        50.37781         2.02335
H         30.28246        52.44527         2.61456
H         32.59097        17.29795         2.22657
H         33.92330        18.62580         0.45679
H         34.17981        46.13475         1.24207
H         32.99321        48.14203         2.07454
H         35.17778        20.64709        -0.10543
H         36.42802        22.77136        -0.44256
H         36.60550        42.06148        -0.14450
H         35.37988        43.98978         0.72767
H         37.75989        24.76624        -1.08303
H         38.97149        26.93608        -0.97799
H         38.98591        37.93714        -0.59406
H         37.79747        40.04462        -0.61038
H         40.19686        29.08102        -0.82489
H         41.37882        31.17877        -0.44245
H         41.36865        33.64177        -0.24637
H         40.17975        35.79658        -0.46515
