         720
 CSIRO Nanostructure Databank - Neutral Graphene Oxide Data Set
C         23.66619        27.69980         3.13870
C         23.47824        28.99134         2.61654
C         23.16270        31.81543         1.80918
C         23.26252        33.16269         1.83106
C         23.18146        36.07470         0.99523
C         23.16791        37.40870         0.87711
C         23.16269        40.40464         1.06375
C         23.12213        41.77965         0.90207
C         23.07880        44.70657         0.58177
C         23.07895        46.08551         0.46042
C         25.97900        24.83011         2.87295
C         24.97684        25.61410         3.32017
C         25.78439        27.51459         1.93214
C         24.79004        26.95168         2.79436
C         25.65167        28.86982         1.51961
C         24.45024        29.59053         1.82568
C         25.61346        31.69448         1.30000
C         24.26151        30.97003         1.20489
C         25.56343        33.17395         0.98904
C         24.43466        33.87240         1.33893
C         25.63795        36.04557         0.82561
C         24.43869        35.37955         1.46849
C         25.62218        37.47253         0.72182
C         24.40108        38.21572         1.24834
C         25.50258        40.36064         0.43207
C         24.34629        39.67396         0.83171
C         25.48267        41.78637         0.28670
C         24.27924        42.50909         0.53298
C         25.48580        44.64016         0.13327
C         24.27289        43.95301         0.41856
C         25.49120        46.07964         0.00998
C         24.26618        46.79004         0.17148
C         25.36911        48.93517        -0.24592
C         24.25928        48.23140         0.07257
C         28.40214        23.19626         2.11702
C         28.07453        24.43800         1.39356
C         26.87434        25.28117         1.78567
C         27.91025        27.32989         0.70617
C         26.88344        26.73113         1.45375
C         27.89485        28.75008         0.49030
C         26.74717        29.48077         0.83131
C         27.88715        31.65057         0.05780
C         26.64148        30.91839         0.50767
C         27.92521        33.13404         0.18384
C         26.77623        33.84661         0.55535
C         27.88277        35.93948        -0.21324
C         26.73947        35.28524         0.43216
C         27.88244        37.47242        -0.31459
C         26.72194        38.18253         0.24740
C         27.91810        40.28676        -0.11412
C         26.74000        39.62424         0.20034
C         27.94022        41.76176        -0.43288
C         26.67378        42.50238        -0.06188
C         27.95080        44.61867        -0.50078
C         26.68378        43.89245        -0.09229
C         27.94387        46.09759        -0.17354
C         26.69654        46.79676        -0.22526
C         27.84328        48.97860         0.11564
C         26.68199        48.27614        -0.55171
C         27.86547        50.36313         0.42912
C         30.70816        23.21518         1.25438
C         29.61540        22.61799         2.00932
C         30.52639        24.46329         0.63931
C         29.18054        25.08621         0.60345
C         30.24324        27.25162        -0.47154
C         29.04295        26.52903         0.16333
C         30.31953        28.72712        -0.13566
C         29.12193        29.45197         0.07262
C         30.38592        31.66750         0.12683
C         29.12008        30.86921        -0.00360
C         30.33072        32.99942        -0.62642
C         29.13751        33.82642        -0.17246
C         30.36742        35.94800        -0.69892
C         29.15003        35.20033        -0.29219
C         30.40120        37.43627        -0.51264
C         29.17041        38.18495        -0.38592
C         30.40918        40.33245        -0.28434
C         29.16530        39.57772        -0.24991
C         30.44035        41.69911        -0.07337
C         29.14868        42.42943         0.22587
C         30.40340        44.57847         0.08050
C         29.20334        43.90520        -0.05353
C         30.40429        46.04935         0.43204
C         29.12583        46.77101         0.07548
C         30.37718        49.00612         0.31075
C         29.06171        48.21530         0.34276
C         30.35198        50.51959         0.06228
C         29.03081        51.08862         0.51691
C         33.33808        20.55282         1.62680
C         32.22138        21.29779         1.84179
C         32.96206        23.06577         0.28114
C         31.94364        22.50642         1.10781
C         32.85095        24.39079        -0.14955
C         31.64585        25.15892         0.05591
C         32.78564        27.21334        -0.89342
C         31.56848        26.52488        -0.28932
C         32.84101        28.70090        -0.58879
C         31.53219        29.46415        -0.67463
C         32.81524        31.57143        -0.20767
C         31.63507        30.89491        -0.20333
C         32.82128        33.04379        -0.25406
C         31.65356        33.73208        -0.48736
C         32.99045        35.93418        -0.81817
C         31.65883        35.17841        -0.81111
C         32.86518        37.32670        -0.21011
C         31.60828        38.09499        -0.43407
C         32.95615        40.31576        -0.12807
C         31.66146        39.57356        -0.45671
C         32.90242        41.75286         0.16634
C         31.68363        42.44209         0.04484
C         32.90166        44.62495        -0.27133
C         31.64381        43.87821         0.11095
C         32.86642        46.13414        -0.08216
C         31.65262        46.78497        -0.01027
C         32.89679        49.02389        -0.10806
C         31.60083        48.25357        -0.11448
C         32.90990        50.43004         0.42171
C         31.58928        51.14451         0.77935
C         32.86748        53.30350         0.36590
C         31.70887        52.63819         0.57813
C         35.60137        18.79095         0.86813
C         35.52928        20.10710         0.39706
C         34.23568        20.84299         0.49800
C         35.29925        22.76624        -0.93425
C         34.08886        22.19928        -0.16006
C         35.31772        24.31066        -0.94489
C         34.03673        25.06346        -0.72701
C         35.34520        27.20941        -1.00799
C         34.09223        26.54035        -0.41004
C         35.33404        28.67934        -0.62544
C         34.04061        29.35270        -0.49806
C         35.32504        31.52961        -0.42827
C         34.09458        30.78609        -0.01369
C         35.33174        32.96891        -0.09786
C         34.08905        33.76537        -0.16329
C         35.41714        35.85622        -0.13644
C         34.14947        35.14311        -0.23491
C         35.44177        37.31776         0.16847
C         34.11896        38.03636         0.17940
C         35.47291        40.27428         0.29933
C         34.16352        39.53658         0.30136
C         35.47934        41.77700         0.30417
C         34.15659        42.47887         0.47964
C         35.42166        44.64675        -0.12989
C         34.15994        43.96698         0.26329
C         35.38463        46.12051        -0.01521
C         34.11416        46.86138        -0.11662
C         35.37737        49.00169        -0.28065
C         34.16700        48.26636        -0.09295
C         35.36978        50.45849        -0.34320
C         34.18545        51.18800         0.18736
C         35.27790        53.36593        -0.27917
C         34.14797        52.66820         0.09640
C         35.36575        54.80829        -0.29134
C         37.96871        18.67422         0.33442
C         36.79831        18.08096         0.83049
C         37.89791        19.98509        -0.18120
C         36.67850        20.70737        -0.17244
C         37.78708        22.80357        -0.81233
C         36.63147        22.11898        -0.56749
C         37.83463        24.27687        -0.59726
C         36.58399        25.06829        -0.69089
C         37.84439        27.20307        -0.31495
C         36.59968        26.43316        -0.61530
C         37.82151        28.70011        -0.49409
C         36.51104        29.38795        -0.64502
C         37.77170        31.51410        -0.82142
C         36.52880        30.84151        -0.60498
C         37.70295        32.96730        -1.05212
C         36.62168        33.70599        -0.33249
C         37.88422        35.86267        -0.51921
C         36.59430        35.17492        -0.31464
C         37.96571        37.35688        -0.34476
C         36.74924        38.10161         0.12641
C         37.76340        40.27063        -0.67531
C         36.72967        39.58336        -0.09701
C         37.60422        41.71492        -1.14678
C         36.65260        42.50801        -0.26343
C         37.81255        44.66892        -0.81703
C         36.57060        43.98097        -0.45893
C         37.85364        46.11804        -0.74077
C         36.67516        46.86738        -0.25756
C         37.76621        48.98869        -0.89106
C         36.60009        48.31425        -0.52776
C         37.75034        50.47202        -1.14544
C         36.48391        51.16248        -0.70853
C         37.80246        53.32709        -0.51049
C         36.47942        52.66421        -0.87931
C         37.83024        54.74482        -0.41879
C         36.56189        55.45355        -0.40438
C         40.56134        16.12659         1.40586
C         39.35971        16.66823         1.11385
C         40.50457        18.74252         0.32390
C         39.26507        17.87817         0.21919
C         40.34668        20.23589         0.16097
C         39.16448        20.57183        -0.77924
C         40.33681        22.84429        -1.31454
C         39.06903        22.08267        -1.04938
C         40.33773        24.38445        -1.34497
C         39.14741        24.99026        -0.58343
C         40.23626        27.22936        -1.19888
C         39.22424        26.50222        -0.28942
C         40.40294        28.72243        -0.78245
C         39.06803        29.44490        -0.80048
C         40.25866        31.61618        -1.23004
C         39.00690        30.82286        -0.98002
C         40.19530        33.07057        -1.65720
C         38.83257        33.72343        -1.65073
C         39.49993        36.00565        -2.31397
C         38.79063        35.20142        -1.49222
C         39.54030        37.42999        -2.18926
C         38.89896        38.11374        -1.20970
C         40.29696        40.27793        -1.42091
C         39.05125        39.56872        -0.97711
C         40.23544        41.76776        -1.62554
C         38.91753        42.47603        -1.41258
C         40.20243        44.63737        -1.52448
C         38.93999        43.94493        -1.18343
C         40.23026        46.15289        -1.44755
C         38.99232        46.83997        -1.04270
C         40.24662        48.96015        -0.99873
C         39.01327        48.28587        -0.98218
C         40.27729        50.47323        -0.97722
C         38.96535        51.07292        -0.41352
C         40.22090        53.25351        -0.18703
C         38.99684        52.59050        -0.42059
C         40.27330        54.66913        -0.10118
C         39.06767        55.42259        -0.25614
C         40.30986        57.51708         0.02414
C         39.17059        56.87277        -0.30199
C         43.02336        16.10746         1.12636
C         41.79473        16.76608         1.00194
C         43.00415        18.79968         0.28321
C         41.75385        18.13096         0.54185
C         42.97519        20.22739        -0.09715
C         41.66055        20.94529        -0.19786
C         42.90370        22.93961        -1.10477
C         41.66688        22.07126        -1.24206
C         42.86528        24.29147        -1.25816
C         41.63481        25.05879        -0.85249
C         42.76024        27.24464        -1.49138
C         41.60465        26.53547        -1.23460
C         42.78129        28.68672        -1.60665
C         41.44832        29.39736        -1.69545
C         42.71755        31.55035        -1.57272
C         41.52076        30.87705        -1.45661
C         42.71948        32.97463        -2.02204
C         41.44396        33.68674        -2.28989
C         42.70362        35.94109        -2.37032
C         41.57700        35.14679        -2.58127
C         42.76597        37.44050        -2.37253
C         41.62188        38.32516        -2.48186
C         42.75577        40.38209        -1.89379
C         41.53403        39.61202        -1.95373
C         42.74117        41.80094        -1.49028
C         41.52219        42.50563        -1.48857
C         42.69271        44.65883        -1.31063
C         41.50286        43.93262        -1.41087
C         42.71062        46.08984        -1.13338
C         41.50813        46.83600        -1.17798
C         42.72600        48.91677        -0.70864
C         41.48695        48.24129        -0.96852
C         42.76152        50.32208        -0.42561
C         41.47913        51.01120        -0.23121
C         42.75885        53.19318         0.02260
C         41.46708        52.49074         0.05162
C         42.75617        54.63648         0.11513
C         41.52613        55.32970         0.14758
C         42.80439        57.47678         0.35090
C         41.49542        56.77514         0.57497
C         44.21007        16.73672         0.75547
C         45.48955        18.71298        -0.13890
C         44.21348        18.08284         0.32439
C         45.46342        20.15492        -0.58155
C         44.18503        20.88003        -0.64241
C         45.40770        22.97071        -1.04295
C         44.17631        22.23161        -0.98843
C         45.39044        24.37801        -1.28515
C         44.10206        25.03756        -1.54796
C         45.33610        27.27113        -1.54002
C         44.06468        26.53723        -1.68511
C         45.33586        28.75221        -1.83489
C         43.97866        29.40870        -1.64598
C         45.18685        31.61527        -1.56963
C         43.95647        30.83025        -1.65517
C         45.02732        33.06543        -1.22670
C         43.91212        33.82156        -1.85221
C         45.26333        35.90807        -1.87319
C         43.91334        35.19405        -1.94791
C         45.15610        37.38642        -1.57909
C         43.97464        38.08168        -1.93094
C         45.21626        40.25618        -1.32586
C         44.05556        39.56491        -1.91108
C         45.18661        41.71018        -1.19880
C         43.98987        42.45683        -1.35576
C         45.17964        44.62633        -0.90720
C         44.00924        43.95867        -1.56392
C         45.16671        46.00154        -0.60073
C         43.92988        46.76505        -0.78223
C         45.09062        48.84835         0.00136
C         43.91373        48.15256        -0.56456
C         45.20968        50.31256        -0.16213
C         43.95980        51.03542        -0.25790
C         45.21432        53.19865        -0.23889
C         43.93884        52.47040        -0.11799
C         45.24584        54.63417         0.11580
C         44.00324        55.34539         0.19612
C         43.96807        56.78805         0.24960
C         47.94724        18.88007         0.22105
C         46.81251        18.16464         0.27409
C         47.97727        20.37625         0.05446
C         46.68478        20.96700        -0.45537
C         47.88956        23.15943        -0.47302
C         46.63761        22.31993        -0.67645
C         47.85176        24.38232        -1.39902
C         46.55800        25.14042        -1.29146
C         47.79830        27.29011        -1.20406
C         46.53544        26.57967        -1.37284
C         47.82029        28.79952        -1.30274
C         46.47765        29.46248        -1.13892
C         47.55362        31.66212        -0.41783
C         46.50670        30.91323        -1.18397
C         47.40013        33.03111        -0.26211
C         46.21480        33.79071        -0.74098
C         47.48001        35.91711        -0.67240
C         46.31932        35.23512        -1.01210
C         47.53204        37.34920        -0.87457
C         46.33683        38.07564        -1.17466
C         47.51028        40.18959        -0.34955
C         46.33387        39.51250        -1.00516
C         47.59586        41.68396        -0.61238
C         46.41352        42.38641        -0.91912
C         47.68377        44.54496        -0.42803
C         46.43221        43.86075        -0.92412
C         47.53938        45.87775         0.19583
C         46.32504        46.63891        -0.08915
C         47.63263        48.77453         0.37196
C         46.33892        48.05679         0.28624
C         47.66602        50.18828         0.23314
C         46.44272        50.93280        -0.03799
C         47.75656        53.11681         0.15030
C         46.52047        52.40224        -0.20961
C         47.70518        54.48272         0.32329
C         46.49201        55.22438         0.32396
C         50.16315        20.22899        -1.33911
C         49.13076        20.96821        -0.74352
C         50.24507        23.06347        -1.37712
C         49.13638        22.37142        -0.83590
C         50.31342        24.53427        -1.22889
C         49.09575        25.20336        -1.19511
C         50.30625        27.40243        -1.02975
C         49.00409        26.62516        -1.08371
C         50.08058        28.75840        -0.36383
C         48.89962        29.42013        -0.45004
C         49.94852        31.45311         0.55600
C         48.62469        30.74765         0.28148
C         49.99776        32.72284         1.19591
C         48.26919        33.92878         0.49429
C         49.86521        35.93060         0.22234
C         48.50776        35.25276         0.15360
C         50.00446        37.29074        -0.42460
C         48.76290        38.06429        -0.65391
C         50.07354        40.13630        -0.14710
C         48.80239        39.43429        -0.55404
C         50.07718        41.60445        -0.51255
C         48.80738        42.34729        -0.30161
C         50.07841        44.44427         0.16811
C         48.88900        43.75537        -0.11979
C         50.10572        45.85208         0.46549
C         48.81393        46.57224         0.65397
C         50.03621        48.72909         0.81915
C         48.82446        48.05342         0.59454
C         50.05527        50.13658         0.75296
C         48.90777        50.86237         0.38121
C         50.24679        52.98816         0.64632
C         49.05018        52.33114         0.00808
C         51.17313        20.89336        -2.04147
C         53.16733        23.58190        -2.03356
C         51.22104        22.29363        -2.03263
C         52.83121        24.46263        -0.96521
C         51.54795        25.19981        -0.84709
C         52.55469        27.29848         0.15002
C         51.47699        26.56842        -0.46972
C         52.56444        28.73332         0.20973
C         51.21238        29.36033         0.41184
C         52.41761        31.64666         0.44660
C         51.17275        30.85481         0.38415
C         52.42071        33.01570         0.98944
C         51.13715        33.43278         1.45082
C         52.35512        35.97433         0.74726
C         51.07995        35.57987         1.02811
C         52.53685        37.17225        -0.14042
C         51.30014        38.01146        -0.27220
C         52.65058        40.06307        -0.57709
C         51.35037        39.36244        -0.40141
C         52.65950        41.60300        -0.59637
C         51.35654        42.36088        -0.49682
C         52.57846        44.50763         0.07593
C         51.35868        43.65890         0.30516
C         52.53980        45.86744         0.26026
C         51.30427        46.55145         0.63939
C         52.53269        48.72068         1.32575
C         51.23506        47.93412         1.32722
C         52.55538        50.11268         1.09446
C         51.24194        50.82155         1.39097
C         51.25499        52.31122         1.20339
C         55.55573        23.91718        -1.66108
C         54.50503        23.31979        -2.36499
C         55.29481        24.64957        -0.49316
C         53.93698        24.78760        -0.14503
C         54.88105        27.33827         1.06919
C         53.67825        26.69583         0.75924
C         54.91124        28.76571         0.99878
C         53.72895        29.43459         0.53034
C         54.90762        31.68987         0.91418
C         53.74800        30.92137         0.44335
C         54.85244        33.05045         1.15487
C         53.59197        33.76178         1.13696
C         54.86065        35.96827         1.34673
C         53.49923        35.26308         1.52299
C         55.01946        37.11879         0.42593
C         53.88372        37.85110        -0.22199
C         55.07534        40.15194        -0.29593
C         53.92565        39.35275        -0.35628
C         55.05910        41.59587        -0.08679
C         53.88101        42.31714        -0.21701
C         55.05608        44.47888         0.36678
C         53.88002        43.82992        -0.33692
C         55.04469        45.82655         0.54224
C         53.85996        46.54142        -0.06118
C         54.97919        48.71574         1.54229
C         53.71618        48.10657         1.78413
C         54.98155        50.03209         1.06240
C         53.79008        50.76377         0.96854
C         57.58417        24.57097         0.61165
C         56.42896        25.45145         0.16909
C         57.01489        26.79976         2.15836
C         56.06378        26.47173         1.25229
C         57.08555        29.01323         2.17121
C         56.03513        29.54612         1.39800
C         57.40866        31.63270         1.39280
C         56.20341        30.93076         0.82952
C         57.36032        32.95774         1.71016
C         56.02320        33.68029         1.92480
C         57.46542        35.72886         1.25652
C         56.13913        35.18450         1.63318
C         57.51010        36.98467         0.68594
C         56.29811        37.45691         0.08466
C         57.54398        40.14869         0.12908
C         56.39746        39.58848        -0.37314
C         57.51649        41.56234         0.43637
C         56.29586        42.24223         0.31503
C         57.55095        44.35893         0.97500
C         56.22852        43.64644         0.73198
C         57.52958        45.84135         0.81627
C         56.22676        46.49956         1.17334
C         57.56324        48.60986         1.69863
C         56.23834        47.92091         1.66370
C         58.48364        24.92151         1.54060
C         59.49817        27.13355         2.27591
C         58.33828        26.15125         2.40166
C         59.51006        28.49881         2.19566
C         58.41582        29.42443         2.01998
C         59.80817        31.54114         2.09107
C         58.68754        30.80949         1.39651
C         59.78624        32.88152         2.24922
C         58.61744        33.67582         1.91739
C         59.93035        35.75469         1.38925
C         58.68348        35.03280         1.60127
C         59.97698        37.03921         0.95322
C         58.73606        37.83605         0.77119
C         60.01526        40.10816         0.37756
C         58.75057        39.33794         0.51105
C         60.00226        41.45836         0.47584
C         58.78479        42.24798         0.63570
C         60.02985        44.42475         0.95590
C         58.82334        43.63516         0.80389
C         60.03360        45.77849         1.11064
C         58.81199        46.59316         0.95067
C         58.73116        48.00229         1.41281
O         53.97214        47.39889        -0.92263
O         29.83027        48.61653         1.56521
O         40.48045        32.71107        -0.26249
O         30.87364        35.49426        -2.02784
O         50.22346        36.08544        -1.21154
O         42.44247        21.15900         0.99992
O         53.32867        37.08764        -1.36365
O         27.56736        36.63686        -1.47674
O         40.42590        35.56867        -3.26607
O         41.30292        51.48410         1.14272
O         40.13076        45.46783        -2.74293
O         56.79121        27.90496         3.00509
O         45.50712        19.02620        -1.57428
O         34.08597        43.42566         1.60313
O         50.90808        34.66536         2.07785
O         33.84644        50.61822         1.52344
O         58.16432        46.35432        -0.38268
O         36.21793        37.62248         1.37737
O         58.58591        38.81981         1.89454
O         43.55979        40.20369        -3.12470
O         51.06809        50.53271         2.78804
O         26.80782        31.23325        -0.88551
O         33.24005        37.42534         1.20233
O         46.20874        31.42953        -2.59724
O         33.55627        20.98940        -0.79351
O         26.82808        24.36193         0.63508
O         52.22166        22.91738        -2.80019
O         45.07807        33.40294         0.20240
O         37.77427        33.24839        -2.53505
O         47.39760        44.51474        -1.85329
O         28.67561        25.42612        -0.73658
O         47.92370        45.94752         1.61988
O         38.55782        36.45771         0.64418
O         56.49182        38.33825        -0.98302
O         32.15769        48.81719        -1.35523
O         39.42197        42.16719        -2.77839
O         39.51635        22.36260        -2.43618
O         48.82181        33.34222         1.63707
O         55.54521        36.08484         2.62630
O         42.09433        32.95295        -3.38564
O         45.93503        52.87440        -1.48103
O         45.38911        48.39142         1.37369
O         36.24141        46.54881         1.10897
O         56.73395        43.89372         2.08935
O         56.14519        46.79316         2.60088
O         55.63751        33.50636         3.26463
O         34.48228        24.76615        -2.07764
O         32.57507        40.03499        -1.52647
O         36.59571        42.19748         1.15814
O         53.19062        31.46194        -0.80821
O         36.28608        33.20606         1.00984
O         50.62964        42.18810        -1.74447
O         40.10400        39.92021         0.00572
O         34.80307        39.88424         1.55281
O         37.76582        28.05679         0.87323
O         52.72570        40.83587        -1.83009
O         53.62187        25.33786         1.10325
O         38.68573        24.36596         0.65292
O         44.04823        25.67309        -2.88751
O         40.42068        37.96187        -3.11967
O         30.49679        50.82091        -1.33812
H         29.71372        50.47832        -1.81758
O         41.86689        21.39878        -2.50905
H         40.98245        21.30625        -2.93811
O         39.59869        27.19128        -2.48532
H         40.16274        27.67421        -3.13471
O         44.24657        44.12863        -3.01640
H         43.58251        43.58438        -3.49231
O         30.00291        27.22446        -1.92669
H         29.51771        26.38146        -2.10398
O         51.44795        43.17623         1.68974
H         51.39662        43.95286         2.28728
O         38.79418        50.64000         0.94940
H         39.58082        50.94949         1.46318
O         33.02205        44.44573        -1.72615
H         32.19653        44.76884        -2.14679
O         50.67028        27.67947        -2.41542
H         49.93708        28.23071        -2.79300
O         35.15877        22.34105        -2.30984
H         34.56066        22.99008        -2.75004
O         47.88534        23.84495        -2.75411
H         47.76837        24.58839        -3.38215
O         39.42565        19.91076        -2.04271
H         38.75325        20.21725        -2.68885
O         58.38173        25.70999         3.78888
H         58.04224        26.45352         4.33329
O         53.18757        35.30070         2.92228
H         53.98838        34.94984         3.38897
O         50.95030        47.66655         2.74216
H         50.88798        48.58053         3.14087
O         26.91223        48.40200        -2.02054
H         26.06057        48.21309        -2.46916
O         41.71882        24.96826         0.59348
H         41.11586        25.64646         0.99797
O         26.05648        31.61006         2.68457
H         25.35853        32.00911         3.24649
O         28.14239        41.86188        -1.86552
H         27.36217        41.47847        -2.31616
O         24.53134        35.59252         2.92863
H         25.40432        35.25388         3.22085
O         41.30307        56.74911         2.04441
H         42.05777        56.25253         2.42733
O         39.27934        17.33321        -1.14976
H         39.36780        18.10934        -1.75912
O         45.79088        35.82828        -3.24705
H         45.21099        36.37022        -3.82393
O         53.60447        46.94168         2.48521
H         52.67102        46.87567         2.80789
O         40.99197        29.29588        -3.08714
H         41.66197        29.73149        -3.65711
O         35.33364        27.19399        -2.45090
H         34.39260        27.14226        -2.75727
O         28.00209        44.58758        -1.97099
H         27.24515        45.11720        -2.30019
O         34.21352        30.65228         1.45870
H         34.70164        31.43546         1.79701
O         50.93841        29.03219         1.83184
H         50.00756        29.29794         2.01839
O         23.95562        30.78805        -0.19662
H         23.13801        30.25459        -0.27055
O         39.93826        20.75592         1.45548
H         40.76504        20.89540         1.97530
O         48.23258        29.06505        -2.70333
H         47.44037        28.84750        -3.26278
O         50.00386        40.22391         1.33800
H         50.12276        39.32233         1.70769
O         45.59764        28.86584        -3.29631
H         45.67327        29.84073        -3.47019
O         30.48123        32.04327         1.54136
H         30.73884        31.24777         2.05321
O         56.96056        26.30108        -0.89742
H         57.26715        25.72565        -1.62926
O         54.04322        44.07857        -1.76810
H         54.07037        45.04935        -1.91436
O         56.47113        30.76508        -0.61741
H         55.61505        30.79510        -1.09906
O         49.30049        52.34820        -1.43902
H         48.45482        52.15319        -1.89728
O         47.24946        40.10769         1.10084
H         48.07847        40.40519         1.55077
O         30.13678        32.71602        -2.03116
H         30.17463        33.57890        -2.50664
O         31.29167        29.59607        -2.12380
H         30.48046        30.13824        -2.24462
O         37.89311        50.67986        -2.59645
H         37.21603        50.12588        -3.04103
O         40.22831        24.76254        -2.72236
H         39.64747        24.11009        -3.17552
O         59.12793        30.55806         0.03270
H         58.31949        30.50222        -0.53182
O         24.48559        38.28063         2.69892
H         24.43420        37.35104         3.03979
O         36.91197        41.62526        -2.42186
H         37.59925        41.64158        -3.12971
O         31.36142        50.92598         2.18482
H         32.23325        51.01935         2.63329
O         39.70019        26.60898         1.07400
H         39.09293        26.06200         1.62517
O         48.06124        30.37644         1.56896
H         47.91386        31.20618         2.07532
O         48.13752        20.89313         1.43163
H         48.98542        20.54495         1.78134
O         33.37821        36.13721        -2.20308
H         32.55109        36.10590        -2.74081
O         40.96555        28.83570         0.53596
H         40.33458        28.42911         1.17436
O         36.33507        52.90496        -2.32449
H         37.05722        52.39681        -2.76624
O         34.16290        26.65170         1.02598
H         34.34063        27.58875         1.26048
O         28.92848        42.31808         1.66765
H         29.62484        42.83653         2.12544
O         30.47014        46.01582         1.90015
H         30.33805        46.94315         2.21776
O         47.93238        23.61074         0.89159
H         47.95460        22.79895         1.45511
O         32.67908        27.04612        -2.33156
H         31.81100        27.45005        -2.59239
O         40.50316        50.94488        -2.33009
H         39.70465        50.72146        -2.86501
H         22.90499        27.26446         3.80120
H         22.55433        29.52980         2.86868
H         22.21870        31.34091         2.11638
H         22.42653        33.76568         2.21553
H         22.29624        35.47263         0.74098
H         22.25918        37.92496         0.53180
H         22.26121        39.88015         1.41003
H         22.18032        42.30466         1.10943
H         22.13154        44.19713         0.80120
H         22.14288        46.64740         0.59112
H         26.07529        23.79965         3.24041
H         24.27176        25.24642         4.07975
H         25.30562        50.02847        -0.34295
H         23.30947        48.75539         0.25911
H         27.60339        22.68506         2.67104
H         26.91408        50.90426         0.53934
H         29.78266        21.65600         2.51034
H         28.96614        52.17256         0.68602
H         33.57367        19.71716         2.30050
H         31.55419        21.00927         2.66531
H         32.82556        54.40158         0.31628
H         30.79303        53.22673         0.73867
H         34.70240        18.30218         1.26758
H         34.45445        55.40734        -0.15186
H         36.80376        17.04740         1.19871
H         36.57059        56.55174        -0.37501
H         40.62758        15.18445         1.97066
H         38.44570        16.14026         1.41775
H         40.36409        58.61463        -0.02773
H         38.30453        57.45402        -0.64915
H         43.04620        15.06899         1.48619
H         42.81415        58.57633         0.38433
H         45.15068        16.17277         0.80396
H         44.91304        57.34241         0.15987
H         48.89752        18.39339         0.49426
H         46.87052        17.09562         0.52979
H         48.62872        55.04331         0.52228
H         46.55744        56.29769         0.54994
H         50.14987        19.13060        -1.30522
H         50.31958        54.08332         0.56509
H         51.94278        20.32613        -2.58036
H         52.09741        52.86410         1.64593
H         56.59011        23.76116        -2.00229
H         54.71571        22.67314        -3.22601
H         55.93795        50.52946         0.84586
H         53.83121        51.84095         0.75788
H         57.73802        23.63764         0.04575
H         57.57570        49.66314         2.01891
H         59.33312        24.25755         1.76365
H         60.48404        26.64803         2.36745
H         60.51324        28.95223         2.13070
H         60.71114        30.97510         2.36367
H         60.66668        33.39399         2.66548
H         60.87439        35.21635         1.56054
H         60.95245        37.53118         0.82356
H         60.97333        39.57645         0.27943
H         60.96008        41.99665         0.42791
H         60.99086        43.89395         1.02040
H         60.98145        46.29908         1.31416
H         59.67540        48.55995         1.51395
