         420
 CSIRO Nanostructure Databank - Neutral Graphene Oxide Data Set
C         27.89459        27.32870        -0.21555
C         27.87041        28.75395        -0.17423
C         26.66413        29.48568        -0.04422
C         27.88690        31.60891        -0.04677
C         26.67734        30.86752         0.01821
C         27.88988        33.07009         0.13069
C         26.70321        33.78129         0.43983
C         27.90688        35.90516         0.52348
C         26.70989        35.15471         0.60927
C         27.92021        37.35423         0.66397
C         26.73490        38.08435         0.89532
C         27.94015        40.20805         0.89363
C         26.74323        39.46754         0.99791
C         27.95260        41.65951         0.97801
C         26.73376        42.40566         1.02057
C         27.96189        44.50449         1.02848
C         26.73513        43.77858         1.02767
C         27.98347        45.92264         1.02366
C         30.33493        27.31685        -0.43079
C         29.07878        26.63793        -0.32274
C         30.30722        28.73481        -0.45537
C         29.10132        29.46629        -0.28114
C         30.35704        31.62096        -0.28172
C         29.10232        30.90517        -0.22527
C         30.35395        33.12799        -0.42879
C         29.08953        33.80216         0.04960
C         30.37238        35.93975         0.22107
C         29.11512        35.20426         0.26949
C         30.37580        37.36556         0.34346
C         29.14576        38.07335         0.55621
C         30.40004        40.21520         0.62568
C         29.15928        39.49893         0.68947
C         30.42696        41.63344         0.82673
C         29.17932        42.35373         0.98330
C         30.41791        44.51339         1.08512
C         29.19327        43.79009         1.03924
C         30.42346        45.91664         1.09224
C         29.17995        46.60734         1.03860
C         32.80248        24.46312        -0.32828
C         31.64306        25.16157        -0.23192
C         32.83565        27.26312        -0.57542
C         31.58784        26.58738        -0.47007
C         32.83973        28.73573        -0.71209
C         31.54928        29.49175        -0.64605
C         32.83631        31.64260        -0.42107
C         31.55523        30.94559        -0.37508
C         32.85647        33.08680        -0.27348
C         31.58936        33.74582         0.21746
C         32.81740        35.95562         0.03573
C         31.58986        35.25134         0.09543
C         32.83543        37.38034         0.13441
C         31.60544        38.08106         0.29430
C         32.84897        40.22455         0.33792
C         31.61805        39.51095         0.42627
C         32.85861        41.64793         0.49692
C         31.64996        42.32603         0.81528
C         32.92067        44.51074         0.84437
C         31.70176        43.75284         1.30438
C         32.92769        45.95914         0.97751
C         31.69594        46.65457         1.12713
C         32.92166        48.76580         1.16882
C         31.72714        48.05724         1.24838
C         35.39931        23.00885        -0.42663
C         35.35330        24.40354        -0.53334
C         34.05435        25.10332        -0.87255
C         35.32808        27.29339        -0.58449
C         34.06967        26.58536        -0.59698
C         35.34566        28.71585        -0.54520
C         34.06870        29.45764        -0.22788
C         35.27924        31.65066        -0.78258
C         34.01722        30.93119        -0.55111
C         35.29518        33.11765        -0.55913
C         34.04130        33.80483        -0.30615
C         35.26458        35.95685        -0.07751
C         34.05319        35.24596        -0.11277
C         35.30594        37.38007        -0.00026
C         34.07624        38.09241         0.09310
C         35.30432        40.23725         0.02524
C         34.07801        39.52190         0.15097
C         35.29378        41.67630         0.02776
C         34.07148        42.37963         0.30613
C         35.26047        44.58639         0.09984
C         34.04099        43.81523         0.41877
C         35.38575        45.91557         0.75430
C         34.16011        46.68307         0.96525
C         35.37381        48.90923         0.77491
C         34.15848        48.10856         1.02173
C         35.38166        50.10363         0.02389
C         37.82952        23.02964        -0.22051
C         36.60310        22.33540        -0.23275
C         37.80107        24.43102        -0.41955
C         36.56999        25.13302        -0.51567
C         37.80941        27.30534        -0.48714
C         36.57037        26.58499        -0.58247
C         37.79655        28.72764        -0.45518
C         36.56932        29.40676        -0.51743
C         37.83525        31.61997        -0.46460
C         36.56550        30.87840        -0.70600
C         37.79442        33.09280        -0.53075
C         36.48271        33.79254        -0.52209
C         37.83510        35.95484        -0.23564
C         36.51636        35.20032        -0.10589
C         37.77748        37.42481        -0.35517
C         36.55235        38.09729        -0.12460
C         37.75792        40.24933        -0.30037
C         36.53483        39.53440        -0.13833
C         37.75150        41.67508        -0.31284
C         36.51128        42.36450        -0.18513
C         37.83994        44.45242         0.09450
C         36.50967        43.83988        -0.22231
C         37.92515        45.70987         0.89771
C         36.60231        46.29788         1.24583
C         37.86227        48.92302         0.69923
C         36.63689        48.44665         1.18379
C         37.84300        50.18097         0.04491
C         36.58319        50.74887        -0.26315
C         40.18642        20.35500         1.04188
C         39.06905        21.00662         0.62833
C         40.30595        23.00736        -0.05171
C         39.09774        22.33585         0.04481
C         40.37639        24.42238        -0.46169
C         39.06054        25.17046        -0.61920
C         40.31919        27.33270        -0.39952
C         39.06720        26.62711        -0.48064
C         40.32855        28.72169        -0.29805
C         39.05389        29.48076        -0.09014
C         40.30837        31.59482        -0.69897
C         39.12349        30.89786        -0.61497
C         40.31722        33.12263        -0.69846
C         38.97979        33.77281        -1.19197
C         39.84628        36.08495        -1.54384
C         38.92564        35.27462        -0.94260
C         40.11326        37.44331        -1.17848
C         38.97091        38.13419        -0.67955
C         40.19561        40.25671        -0.76623
C         38.98807        39.56688        -0.55957
C         40.20837        41.68163        -0.68475
C         38.99148        42.36062        -0.51412
C         40.24485        44.60222        -0.86281
C         38.97761        43.83041        -0.64082
C         40.24393        46.11909        -0.65191
C         39.16992        46.58966         0.98361
C         40.37532        48.82137         0.43774
C         39.12247        48.12975         0.89934
C         40.32331        50.23453        -0.00004
C         39.10117        50.89630        -0.19644
C         40.31307        52.97769        -0.59843
C         39.12282        52.27848        -0.53001
C         42.70301        20.41570         1.48103
C         41.52260        20.87736         0.74599
C         42.81254        23.09930         0.40594
C         41.58234        22.31858         0.18432
C         42.81340        24.50622         0.15030
C         41.60791        25.20036        -0.19082
C         42.82577        27.33404        -0.21763
C         41.58548        26.59904        -0.29131
C         42.84628        28.74446        -0.30672
C         41.58439        29.50236        -0.01979
C         42.79695        31.59928        -0.69068
C         41.58236        30.92054        -0.56230
C         42.81810        33.02026        -1.00772
C         41.60754        33.68061        -1.29124
C         42.78696        35.85958        -1.49770
C         41.69826        35.00078        -1.76031
C         42.65645        37.31108        -1.37790
C         41.43400        38.02320        -1.26486
C         42.71547        40.26711        -0.95725
C         41.43508        39.51661        -1.12829
C         42.69478        41.64260        -0.32470
C         41.46023        42.44280        -0.70590
C         42.81461        44.55358        -0.89614
C         41.49765        43.81247        -0.76366
C         42.78018        45.99975        -0.42237
C         41.57806        46.70798        -0.25577
C         42.82275        48.79410         0.03408
C         41.60583        48.07732         0.07366
C         42.80989        50.23395         0.00830
C         41.56074        50.92561        -0.12821
C         42.79682        53.03091        -0.39789
C         41.55358        52.32599        -0.38253
C         43.86603        21.11809         1.44119
C         45.21967        23.16868         0.92886
C         43.96847        22.44773         0.87749
C         45.24884        24.55096         0.58311
C         44.04119        25.23024         0.23449
C         45.30176        27.33036        -0.08461
C         44.05765        26.62753        -0.04263
C         45.30460        28.75041        -0.34369
C         44.06546        29.46402        -0.40818
C         45.28296        31.59078        -0.75647
C         44.05880        30.89170        -0.59294
C         45.29799        33.03294        -1.02639
C         44.03767        33.74848        -1.15780
C         45.25628        35.92946        -1.49234
C         44.01207        35.16030        -1.29968
C         45.26088        37.37762        -1.22648
C         43.93948        38.00451        -0.99262
C         45.24737        40.22590        -0.80119
C         43.97052        39.48758        -0.73428
C         45.19984        41.67328        -0.67744
C         44.00676        42.35862        -0.52840
C         45.27691        44.54867        -0.47546
C         43.97791        43.82976        -0.20240
C         45.27660        45.95125        -0.41813
C         44.02514        46.67181        -0.28009
C         45.28943        48.80773        -0.10145
C         44.04502        48.08215        -0.10853
C         45.27379        50.23240         0.01616
C         44.03274        50.94976        -0.03081
C         43.98494        52.37378        -0.19896
C         47.63611        23.24187         1.30314
C         46.43943        22.53953         1.27595
C         47.70006        24.61137         0.97513
C         46.48754        25.26873         0.59196
C         47.80450        27.28875        -0.00900
C         46.50232        26.63115         0.18466
C         47.81362        28.76085        -0.36303
C         46.51722        29.47546        -0.42982
C         47.80237        31.55451        -0.79354
C         46.50305        30.86553        -0.64405
C         47.77745        33.02886        -1.02163
C         46.48828        33.72807        -1.11965
C         47.78545        35.95841        -1.18461
C         46.55371        35.17378        -1.42264
C         47.74490        37.37879        -1.14815
C         46.45629        38.08118        -1.10027
C         47.70150        40.25755        -0.77385
C         46.45455        39.53167        -0.89972
C         47.68739        41.65642        -0.63289
C         46.46111        42.40151        -0.67156
C         47.76553        44.54529        -0.91010
C         46.47372        43.80972        -0.63227
C         47.75668        45.98796        -0.45993
C         46.52735        46.68419        -0.39255
C         47.80293        48.85238        -0.40950
C         46.50836        48.10092        -0.22826
C         47.72052        50.27763         0.05700
C         46.53368        50.92031         0.16627
C         50.13892        24.77804         1.56679
C         48.95299        25.35710         1.04941
C         50.21126        27.45237         0.69683
C         49.01179        26.69528         0.59939
C         50.22307        28.86363         0.36457
C         49.04441        29.52182        -0.06312
C         50.21007        31.65937        -0.07859
C         49.03169        30.91451        -0.25289
C         50.18240        33.13683        -0.16147
C         48.94677        33.84717        -0.60007
C         50.23931        35.94584        -1.03880
C         48.99995        35.27157        -1.00470
C         50.21730        37.37741        -1.04322
C         48.97488        38.07755        -0.98962
C         50.12054        40.18273        -0.36459
C         48.96832        39.52659        -0.73582
C         50.08372        41.59988         0.15036
C         48.91943        42.39799        -0.37476
C         50.27510        44.51356        -0.39634
C         48.96614        43.75948        -0.42777
C         50.18232        45.92712         0.12053
C         48.98170        46.65596        -0.09399
C         50.11811        48.68178         0.64332
C         48.98138        48.06569         0.11579
C         51.32264        25.49110         1.61962
C         52.63609        27.59711         1.27297
C         51.39681        26.84061         1.19689
C         52.64071        28.97718         0.92617
C         51.42438        29.61664         0.51195
C         52.65778        31.77062         0.28750
C         51.42524        31.01674         0.25088
C         52.67527        33.14289        -0.12049
C         51.45851        33.83607        -0.37026
C         52.72741        35.59764        -1.33989
C         51.45706        35.13365        -0.91060
C         52.67941        37.72772        -1.28728
C         51.44961        38.13387        -0.84516
C         52.63896        40.26217        -0.45433
C         51.40076        39.43036        -0.08056
C         52.61901        41.62601         0.16461
C         51.40812        42.33777         0.09721
C         52.60876        44.41668         0.56714
C         51.42118        43.73598         0.18808
C         52.59333        45.83139         0.78361
C         51.34476        46.57253         0.60703
C         51.26810        47.94754         0.92288
C         55.03006        27.72770         1.74188
C         53.85430        27.00039         1.68652
C         55.05526        29.09908         1.39213
C         53.85030        29.73673         0.99275
C         55.11295        31.85608         0.61613
C         53.86955        31.12872         0.63430
C         55.14196        33.19470         0.14447
C         53.92737        33.82596        -0.25210
C         55.20464        35.91382        -1.14660
C         53.94005        35.10244        -0.88524
C         55.09860        37.36006        -0.57623
C         53.94876        38.18519        -0.72037
C         55.07332        40.10568         0.32784
C         53.92404        39.50377        -0.22373
C         55.05366        41.52801         0.66519
C         53.83234        42.26887         0.52273
C         54.99694        44.33534         1.20470
C         53.80504        43.67010         0.79427
C         54.95759        45.74020         1.40761
C         53.78807        46.45843         1.20145
C         56.27192        29.85607         1.42324
C         56.30122        31.16978         1.03974
C         56.37003        33.94745        -0.05613
C         56.41221        35.17094        -0.63025
C         56.20751        37.95231         0.05799
C         56.21126        39.28077         0.47996
C         56.20693        42.21304         1.10278
C         56.18583        43.57567         1.37005
O         35.73688        44.47784        -1.29224
O         41.77282        21.14395        -0.66670
O         39.82591        24.68269        -1.79594
O         52.74730        36.68917        -2.22965
O         49.25912        33.72709         0.84356
O         45.95079        35.52187        -2.72871
O         36.67525        47.39281         2.11590
O         48.03987        32.11940        -2.14842
O         42.14679        40.17817        -2.27903
O         40.65371        35.51396        -2.53353
O         40.03619        48.69363         1.90491
O         43.86703        38.55685         0.39163
O         32.24909        29.20303        -1.94995
O         48.00191        27.74734        -1.40432
O         38.10789        44.40507         1.54226
O         37.94583        32.43469         0.80103
O         37.40913        35.41660         1.05491
O         35.98727        31.23296        -2.01749
O         39.55361        46.80830        -1.49251
O         39.34021        44.27200        -1.97538
O         41.62397        29.67898         1.45480
H         40.68092        29.77661         1.75104
O         33.95548        24.97640        -2.34566
H         33.19056        25.52099        -2.63181
O         38.93353        29.67583         1.40119
H         38.49020        30.54198         1.55367
O         39.96319        46.19203         2.02200
H         40.43018        47.00449         2.35670
O         52.51925        40.47873        -1.89553
H         53.21737        41.11055        -2.16820
O         38.81555        33.51000        -2.59895
H         39.45880        34.07900        -3.08331
O         51.45360        39.18631         1.35924
H         50.76799        38.51828         1.57356
O         49.83638        41.46386         1.59818
H         50.49236        40.80185         1.92770
O         47.89812        44.61307        -2.38907
H         47.68901        43.72097        -2.74182
O         30.45917        33.39954        -1.85600
H         29.71182        32.95505        -2.30773
O         42.56865        41.42130         1.11250
H         42.71646        42.29707         1.54565
O         55.39224        36.06267        -2.57594
H         54.54916        36.42033        -2.94021
O         31.49685        33.44174         1.64337
H         32.25613        33.86711         2.09421
O         43.12171        44.57393        -2.31379
H         42.33925        44.92198        -2.79200
O         40.45243        33.49326         0.70137
H         39.63598        33.18690         1.16705
O         43.71531        43.93465         1.24266
H         44.53743        43.67675         1.71193
O         31.84182        43.64103         2.77597
H         31.87738        44.55461         3.13232
O         48.02859        48.92864        -1.87305
H         47.22032        49.31755        -2.27018
O         50.63580        44.66939        -1.82172
H         49.80773        44.93633        -2.29413
O         33.96049        29.38659         1.24529
H         34.79683        29.72374         1.63078
H         26.94356        26.78042        -0.14911
H         25.71005        28.94284         0.01954
H         25.71951        31.39243         0.13098
H         25.74714        33.25015         0.53617
H         25.75653        35.65706         0.82034
H         25.77414        37.56198         0.99343
H         25.78881        39.98015         1.17596
H         25.77035        41.87904         1.01569
H         25.78609        44.33391         1.03374
H         27.03221        46.47364         1.00225
H         29.04995        25.54015        -0.34121
H         29.16077        47.70488         1.01723
H         32.79071        23.38140        -0.13290
H         30.73065        24.63434         0.08109
H         32.89971        49.86298         1.22949
H         30.79582        48.62227         1.38482
H         34.47492        22.41979        -0.49498
H         34.43610        50.53677        -0.33135
H         36.58185        21.24180        -0.13958
H         36.54265        51.70469        -0.80246
H         40.10205        19.42573         1.62481
H         38.09259        20.55741         0.85479
H         40.30443        54.05601        -0.81348
H         38.17904        52.81634        -0.69243
H         42.63392        19.48501         2.06344
H         42.78944        54.11690        -0.57087
H         44.73883        20.70912         1.96855
H         44.92119        52.94765        -0.22649
H         48.55044        22.69856         1.57646
H         46.45849        21.46882         1.51812
H         48.64985        50.85462         0.16327
H         46.52695        51.99076         0.41701
H         50.13437        23.74214         1.93075
H         50.12910        49.76336         0.83301
H         52.21423        24.99059         2.01990
H         52.13654        48.47262         1.34120
H         55.96339        27.23739         2.05433
H         53.88196        25.93697         1.95895
H         55.87215        46.26284         1.72301
H         53.81015        47.54387         1.36783
H         57.19611        29.35519         1.74664
H         57.25737        31.71000         1.06267
H         57.32183        33.47861         0.23368
H         57.39631        35.62070        -0.82982
H         57.11896        37.36017         0.21881
H         57.12582        39.68210         0.93804
H         57.15108        41.66477         1.22747
H         57.10529        44.08326         1.69550
