         470
 CSIRO Nanostructure Databank - Neutral Graphene Oxide Data Set
C         37.85042        49.64211        -1.69993
C         36.80567        50.14953        -2.47418
C         38.03823        52.20645        -2.76088
C         36.91037        51.43790        -3.01183
C         40.47873        48.37328        -1.09072
C         40.06919        49.73450        -0.57378
C         39.01003        50.38763        -1.45569
C         40.26685        52.53801        -1.70145
C         39.11424        51.71257        -1.97378
C         40.47953        53.79565        -2.33225
C         42.74852        48.59846        -0.16398
C         41.68263        47.83838        -0.81509
C         42.58275        49.96246        -0.01483
C         41.28800        50.61602        -0.31685
C         42.66551        52.75175        -0.86326
C         41.30731        52.05912        -0.76861
C         42.52137        54.26008        -0.99808
C         41.51699        54.64303        -2.01451
C         45.03930        45.93368         1.15518
C         44.01536        46.50886         0.46668
C         45.10461        48.68468         0.61430
C         43.97353        47.93621         0.27369
C         45.01536        50.14810         0.70435
C         43.69918        50.80947         0.45217
C         44.90491        53.12447         0.38022
C         43.66071        52.30154         0.19331
C         44.94186        54.63590         0.09413
C         43.68474        55.15300        -0.62577
C         45.02639        57.06829        -1.39958
C         43.82376        56.47040        -1.27410
C         47.58252        44.54628         1.97310
C         47.54096        46.00331         1.98035
C         46.19471        46.72106         1.58258
C         47.51061        48.83940         1.26670
C         46.31260        48.10216         1.11237
C         47.55037        50.25491         0.92150
C         46.28436        50.90821         0.50270
C         47.49875        53.14726         0.42427
C         46.22728        52.39725         0.36227
C         47.48309        54.50188        -0.05395
C         46.26039        55.14954        -0.44836
C         47.50260        57.19039        -1.02673
C         46.27258        56.44676        -0.96656
C         47.51920        58.57822        -1.31654
C         50.01714        44.60808         1.87410
C         48.76983        43.89380         1.90931
C         50.00680        46.02643         1.73413
C         48.77669        46.74794         1.73378
C         49.99895        48.86744         1.44482
C         48.75796        48.15574         1.53889
C         49.98131        50.38235         1.51137
C         48.70936        51.00405         0.96328
C         49.95185        53.12567         0.62551
C         48.71371        52.43484         0.66373
C         49.92705        54.57600         0.36578
C         48.70649        55.20342        -0.18412
C         49.95351        57.28435        -0.75404
C         48.72386        56.54906        -0.64877
C         49.91770        58.69266        -0.93425
C         48.67904        59.32119        -1.18444
C         52.46257        41.80493         2.28763
C         51.27409        42.49350         2.16704
C         52.49275        44.62135         1.96597
C         51.25454        43.90259         1.99367
C         52.46144        46.03576         1.79812
C         51.24560        46.74241         1.64561
C         52.47653        48.89289         1.29806
C         51.22685        48.17981         1.48798
C         52.45576        50.30768         0.97484
C         51.24020        51.03352         0.98447
C         52.45400        53.09091         0.42275
C         51.21984        52.42526         0.70357
C         52.56966        54.60410         0.42595
C         51.23443        55.32519         0.21723
C         52.35423        56.94863        -1.23985
C         51.19503        56.55279        -0.60134
C         52.36604        59.05702        -1.11880
C         51.11687        59.50440        -0.65607
C         52.34195        61.11326         0.67219
C         51.12415        60.59457         0.23027
C         54.97595        40.22371         2.26455
C         54.95844        41.70200         2.28987
C         53.70015        42.47564         2.21801
C         54.98094        44.54829         1.76292
C         53.73315        43.88251         2.03514
C         55.02815        46.01513         1.76197
C         53.71324        46.80761         1.84307
C         54.95721        48.86032         1.15119
C         53.70489        48.21467         1.40003
C         54.93349        50.24211         0.70841
C         53.67448        50.96364         0.63912
C         54.86976        53.02159        -0.13939
C         53.66049        52.36326         0.34530
C         54.91782        54.36096        -0.49681
C         53.72126        55.13820        -0.41365
C         54.85462        57.21233        -1.34634
C         53.64476        56.38326        -1.01879
C         54.85738        58.69273        -0.95464
C         53.59638        59.41476        -0.54733
C         54.84796        61.02411         0.91484
C         53.57443        60.51797         0.33365
C         54.92684        62.41616         1.42363
C         57.37528        40.13727         1.71483
C         56.13014        39.52095         2.09703
C         57.30480        41.54183         1.27305
C         56.20978        42.40260         1.80126
C         57.33314        44.50839         1.01166
C         56.15484        43.84216         1.46219
C         57.38165        45.92633         0.93327
C         56.21873        46.69877         1.24371
C         57.45556        48.80025         0.91549
C         56.17509        48.10898         1.12007
C         57.40771        50.26498         0.46577
C         56.09594        50.86245         0.24974
C         57.26983        52.75627        -1.06232
C         56.01423        52.14892        -0.46872
C         57.38000        54.23215        -1.14373
C         56.04699        54.91345        -1.38032
C         57.42357        57.09698        -0.91647
C         56.15182        56.45282        -1.36017
C         57.43400        58.45125        -0.50669
C         56.17051        59.25197        -0.48835
C         57.39776        61.15302         0.67567
C         56.13310        60.37418         0.50894
C         57.39532        62.23158         1.75179
C         56.08815        62.98785         1.77584
C         59.82061        37.30743         1.54562
C         58.65655        38.01358         1.69051
C         59.80537        40.16770         1.24080
C         58.57975        39.44448         1.53276
C         59.82590        41.51687         0.90186
C         58.53696        42.22237         0.73504
C         59.80333        44.40681         0.24746
C         58.49171        43.71454         0.53715
C         59.84741        45.87722         0.42021
C         58.63788        46.59870         0.63451
C         59.87421        48.69470         0.35769
C         58.67447        48.01750         0.62734
C         59.92890        50.19442         0.13997
C         58.59710        50.83709        -0.19406
C         59.73812        52.64325        -1.45223
C         58.52915        52.01149        -0.88021
C         59.87018        54.17304        -1.43083
C         58.58416        54.89814        -1.11901
C         59.86698        56.96601        -0.60311
C         58.62444        56.34539        -0.91285
C         59.86409        58.34501        -0.19638
C         58.64916        59.06574        -0.12633
C         59.94044        61.05308         0.95630
C         58.69691        60.47136         0.36815
C         59.86404        62.41071         1.44322
C         58.63821        63.07584         1.59902
C         59.68706        65.26926         1.37266
C         58.56612        64.49800         1.50213
C         62.33735        35.81080         1.27747
C         62.29842        37.24968         1.23816
C         61.08899        37.95340         1.38741
C         62.37842        40.16038         1.14156
C         61.07511        39.42884         1.44057
C         62.32008        41.55942         0.67598
C         61.07202        42.24952         0.66328
C         62.29828        44.30740        -0.03361
C         61.05199        43.61835         0.32535
C         62.31366        45.83294        -0.09993
C         61.06852        46.55709         0.28108
C         62.30632        48.60469        -0.20979
C         61.08122        47.97062         0.25917
C         62.10876        49.67682        -1.04025
C         60.93960        50.51657        -0.93600
C         62.77029        52.90332        -1.69694
C         60.87463        51.72806        -1.55903
C         62.49297        54.25943        -1.28798
C         61.18691        54.87535        -1.21364
C         62.30674        56.87771        -0.29839
C         61.11300        56.20855        -0.72570
C         62.13010        58.09181         0.44354
C         61.07144        58.97078         0.31909
C         62.41053        61.09048         0.98253
C         61.15729        60.35722         0.82522
C         62.42545        62.41998         1.71919
C         61.09199        63.16779         1.73810
C         62.19907        65.55327         1.35064
C         60.99404        64.70116         1.69442
C         62.25516        66.87641         2.07622
C         64.76202        35.72952         0.88241
C         63.48703        35.09588         1.10093
C         64.76487        37.18144         0.75654
C         63.53930        37.94466         0.93509
C         64.70398        40.04170         0.26156
C         63.54241        39.33584         0.79696
C         64.78145        41.51622         0.35165
C         63.55303        42.23049         0.37503
C         64.81723        44.32822         0.09166
C         63.58645        43.62798         0.13675
C         64.81071        45.78755         0.07089
C         63.63244        46.48982         0.03725
C         64.89917        48.62944        -0.32295
C         63.62764        47.99420         0.21161
C         64.98141        50.07190        -0.60434
C         64.05540        50.77149        -1.31608
C         64.99016        52.94495        -0.70739
C         63.92144        52.21938        -1.28717
C         64.96981        54.34709        -0.82351
C         63.67859        55.00658        -0.92908
C         64.95386        57.06558        -0.20393
C         63.60548        56.35043        -0.51067
C         64.89048        58.59117        -0.22807
C         63.93243        59.20538         0.53244
C         64.84196        61.44093         0.35421
C         63.68150        60.60961         0.63665
C         64.84647        62.83200         0.73256
C         63.64393        63.35181         1.43421
C         64.70295        65.71440         1.11851
C         63.53884        64.85202         1.48567
C         64.61468        67.06576         1.42254
C         63.40522        67.58508         2.04938
C         67.18946        32.86866         0.89835
C         66.01865        33.56502         0.94359
C         67.28028        35.71962         0.80930
C         65.95187        34.99527         0.78695
C         67.20624        37.13959         0.32199
C         65.96728        37.83792         0.46527
C         67.25638        39.97623         0.13983
C         65.97761        39.25949         0.10993
C         67.28937        41.40337         0.60423
C         66.01549        42.19172         0.30447
C         67.32832        44.32331         0.43287
C         66.03673        43.60307         0.24170
C         67.38133        45.78225         0.13221
C         66.09523        46.54982         0.40274
C         67.32576        48.60599        -0.61238
C         66.06708        47.94735        -0.17513
C         67.43730        50.07497        -0.48616
C         66.17282        50.75116         0.02519
C         67.48136        52.97904        -0.43432
C         66.16525        52.25504        -0.18789
C         67.39586        54.30333        -1.06661
C         66.20328        55.04759        -0.99691
C         67.20493        57.47089        -1.50725
C         66.06361        56.53025        -1.12804
C         67.17782        58.85605        -1.03030
C         66.00132        59.43971        -0.58936
C         67.09641        61.68926        -0.66624
C         65.95522        60.84814        -0.25256
C         67.11970        63.13903        -0.24412
C         65.93733        63.65901         0.47534
C         67.13816        65.80941         0.63281
C         65.94366        65.07887         0.74780
C         67.11472        67.27328         0.76097
C         65.76783        67.95076         1.16368
C         67.05958        69.94204         1.79684
C         65.87764        69.26897         1.79041
C         69.50405        31.19651        -0.24471
C         69.59001        32.66947        -0.07575
C         68.46943        33.49237         0.52273
C         69.50225        35.57938        -0.34742
C         68.43568        34.94836         0.22042
C         69.49616        37.04697        -0.69515
C         68.34259        37.80395        -0.10426
C         69.69124        39.92167        -0.21170
C         68.40869        39.25076        -0.07008
C         69.71702        41.37495        -0.11896
C         68.57524        42.08789         0.21404
C         69.95855        44.27213         0.33047
C         68.61976        43.54965         0.45231
C         69.85408        45.69861        -0.18829
C         68.57558        46.39191        -0.18134
C         69.88770        48.52714        -0.84684
C         68.58520        47.79554        -0.68515
C         69.89337        50.03145        -0.95491
C         68.62597        50.74851        -0.67934
C         69.90983        52.86126        -0.88298
C         68.71254        52.18897        -0.61446
C         69.86182        54.25355        -1.24655
C         68.62469        54.76416        -1.60928
C         69.73331        57.42942        -1.31119
C         68.55847        56.95870        -1.80330
C         69.76300        58.83859        -0.82875
C         68.45350        59.55316        -0.79186
C         69.70741        61.76904        -0.83673
C         68.41215        61.03034        -0.96388
C         69.65859        63.17883        -0.36704
C         68.42646        63.82547        -0.07872
C         69.63173        65.90930         0.47243
C         68.40492        65.16827         0.36924
C         69.62933        67.29469         0.85643
C         68.36804        67.99703         1.03929
C         69.55295        70.11451         1.64483
C         68.30957        69.33303         1.42143
C         69.54097        71.57667         1.50294
C         71.72001        31.23285        -1.27163
C         70.53357        30.52894        -0.80935
C         71.75789        32.57944        -1.33659
C         70.50684        33.38257        -1.06670
C         71.89001        35.52323        -0.80258
C         70.70671        34.84057        -0.71426
C         71.96333        36.94690        -0.59185
C         70.83773        37.72659        -0.50368
C         72.08503        39.90173        -0.67362
C         70.86024        39.18436        -0.44062
C         72.12642        41.26763        -0.69551
C         70.97286        42.07134        -0.39848
C         72.21764        44.20606        -0.69558
C         71.04512        43.46842        -0.35440
C         72.24714        45.58197        -0.63265
C         71.05841        46.35724        -0.42413
C         72.36790        48.59936        -0.72639
C         71.12312        47.87047        -0.27291
C         72.37746        49.94047        -0.93346
C         71.18512        50.76882        -0.87717
C         72.36423        52.97447        -1.22768
C         71.18288        52.15825        -0.96572
C         72.33747        54.32118        -1.40435
C         71.08751        55.10766        -1.23046
C         72.21638        57.49561        -1.48529
C         71.01823        56.64162        -1.24677
C         72.20005        58.84934        -1.32986
C         71.01592        59.61884        -1.00107
C         72.17479        61.80235        -0.67317
C         70.99280        61.00076        -0.79982
C         72.11580        63.14357        -0.39740
C         70.88017        63.85932        -0.18696
C         72.07647        65.97894         0.34028
C         70.86890        65.24556         0.20815
C         72.06586        67.30645         0.71383
C         70.85537        67.98373         0.98193
C         72.04212        70.26019         1.08131
C         70.89308        69.40490         1.41100
C         71.95703        71.61434         1.16192
C         70.69722        72.27826         1.36951
O         52.33303        58.05440        -2.10728
O         55.97125        42.22003         3.23322
O         66.84702        52.94740         0.89848
O         55.52035        60.01780         1.79308
O         65.13643        39.57135        -1.07922
O         69.97808        49.14213        -2.14793
O         57.69106        49.89771         1.87173
O         63.14321        58.38871         1.35572
O         61.85509        52.16183        -2.45466
O         59.63027        53.43881        -2.67369
O         63.89047        64.10371         2.68397
O         56.30063        52.07944        -1.92006
O         42.49469        55.03943         0.23510
O         58.88239        44.03257        -0.84536
O         50.50008        55.42071         1.47629
O         57.55094        41.61046        -0.17284
O         43.90721        52.97171         1.45041
O         66.23824        67.92090        -0.21895
O         68.59476        55.78571        -2.55747
O         61.89589        39.98828         2.52758
O         70.35973        69.61566         2.76232
O         62.17553        45.04728        -1.32035
O         71.12504        55.90541         0.03372
O         67.95395        43.93705         1.73073
O         67.76271        47.99280        -1.88308
O         54.53060        46.58102         3.03235
O         69.10086        59.10971         0.47091
O         69.65857        33.08827         1.31236
O         63.06389        50.04956        -1.98757
O         66.78031        62.74158        -1.62506
O         55.56285        57.00251        -2.60091
O         66.12929        57.10853        -2.45233
O         46.30529        51.49850        -0.84386
O         61.01237        63.98937         2.95710
O         40.92651        51.71414         0.59825
O         69.05274        61.53731        -2.16222
O         58.06002        61.45836        -0.56847
O         46.62399        46.55355         2.96752
O         44.15929        50.53715         1.82445
O         55.66351        59.54803        -1.82698
O         62.61666        61.95159         3.08237
H         62.54101        62.74758         3.65884
O         69.73987        33.39820        -2.31703
H         70.18412        34.01229        -2.93869
O         63.70656        48.22467         1.67054
H         63.99055        49.15621         1.80888
O         67.30972        41.31234         2.07741
H         67.48070        42.23193         2.40199
O         39.44481        49.49647         0.71926
H         39.51854        50.33942         1.22174
O         49.97345        50.70198         2.95333
H         49.19329        50.25887         3.35053
O         57.50772        61.54010         3.02670
H         56.73799        60.92464         3.08377
O         62.04283        65.83655        -0.07128
H         62.75094        66.46203        -0.33729
O         66.09094        50.50702         1.45827
H         66.59189        51.23818         1.89072
O         70.46932        44.42631         1.69735
H         69.67816        44.57906         2.26686
O         55.67816        54.50758        -2.72043
H         55.49302        55.33251        -3.23300
O         65.34528        56.66193         1.12886
H         64.68813        57.04038         1.75547
O         43.27426        52.29096        -2.10631
H         42.70836        52.59097        -2.85024
O         44.91215        55.27701         1.39977
H         44.09461        54.95033         1.84353
O         53.00340        54.93403         1.78709
H         52.17742        55.00555         2.32397
O         60.38202        50.82297         1.37860
H         59.69798        50.60847         2.05574
O         71.01919        48.09394         1.17363
H         71.63692        47.47860         1.62275
O         67.60603        35.83984         2.24361
H         66.86913        36.32143         2.67608
O         69.25643        37.09323        -2.15302
H         69.17985        38.03772        -2.40721
O         66.07146        46.71375         1.85705
H         65.25241        47.23118         2.07185
H         37.75859        48.63870        -1.26096
H         35.90664        49.54442        -2.65372
H         38.07944        53.22653        -3.16495
H         36.09259        51.85004        -3.61912
H         39.72106        47.76841        -1.61044
H         39.75483        54.14059        -3.08305
H         41.90625        46.81523        -1.15071
H         41.55863        55.63919        -2.47521
H         44.98204        44.87248         1.43131
H         43.15142        45.89597         0.17640
H         45.06913        58.05423        -1.88053
H         42.91575        56.97721        -1.62958
H         46.64854        43.98259         2.09439
H         46.59073        59.10273        -1.57426
H         48.76402        42.79742         1.93379
H         48.64850        60.41103        -1.32167
H         52.43126        40.71802         2.43580
H         50.33957        41.92296         2.22087
H         52.32552        61.95897         1.37213
H         50.18046        61.00511         0.61461
H         54.05041        39.67265         2.48026
H         53.99595        62.99594         1.50101
H         56.09277        38.42764         2.20343
H         56.07103        64.00380         2.19583
H         59.77202        36.21141         1.59373
H         57.72811        37.45366         1.86437
H         59.62011        66.32054         1.06072
H         57.58213        64.96943         1.37265
H         61.40875        35.25678         1.46878
H         61.34952        67.28250         2.54842
H         63.43473        34.00018         1.15482
H         63.43564        68.58223         2.50974
H         67.17946        31.78959         1.10821
H         65.09402        33.00841         1.15482
H         67.09006        70.94556         2.24380
H         64.99861        69.72115         2.26907
H         68.64881        30.65050         0.17911
H         68.57670        72.10425         1.47535
H         72.60004        30.63649        -1.55388
H         70.51061        29.43284        -0.89035
H         72.66064        33.08808        -1.70644
H         72.82945        34.99390        -1.01635
H         72.96532        37.39672        -0.53865
H         73.00683        39.34005        -0.87646
H         73.08608        41.76062        -0.89966
H         73.12236        43.67848        -1.02788
H         73.18839        46.09837        -0.86559
H         73.32483        48.05771        -0.75916
H         73.33966        50.43097        -1.14595
H         73.33053        52.45742        -1.32576
H         73.27973        54.85557        -1.59787
H         73.17170        57.00304        -1.72169
H         73.14018        59.39864        -1.49054
H         73.15963        61.32021        -0.75027
H         73.06637        63.68124        -0.28612
H         73.04367        65.49701         0.15136
H         73.02274        67.83369         0.82300
H         72.98163        69.79739         0.74766
H         72.84108        72.23092         0.94612
H         70.66782        73.37468         1.29760
