         314
 CSIRO Nanostructure Databank - Neutral Graphene Oxide Data Set
C         30.54369        57.12491        -1.21909
C         30.57782        58.51260        -1.48973
C         29.43652        59.20014        -1.99017
C         30.68931        61.27357        -2.12287
C         29.50219        60.55866        -2.29096
C         32.88212        52.88097        -0.31053
C         32.79035        54.29235        -0.18618
C         31.67187        55.01832        -0.59364
C         32.84910        57.20836        -0.41627
C         31.67009        56.45220        -0.70372
C         32.94092        58.57483        -0.77292
C         31.79675        59.23785        -1.29904
C         33.07505        61.33527        -1.48442
C         31.85872        60.63266        -1.63414
C         35.24599        48.60772        -0.02881
C         35.26426        49.97869         0.17709
C         34.07902        50.75214        -0.07822
C         35.09721        52.83280         0.88718
C         34.00893        52.13047         0.09765
C         35.24146        54.26919         0.38751
C         33.94722        55.03663         0.37284
C         35.29768        57.26694         0.30212
C         33.97948        56.54118         0.25331
C         35.36780        58.64634        -0.24615
C         34.19088        59.29814        -0.65692
C         35.47490        61.39010        -0.91750
C         34.25219        60.69025        -1.03111
C         37.21221        43.97967         0.15596
C         37.01144        45.36372         0.46625
C         36.26945        46.30444        -0.21219
C         37.76056        48.51974         0.32032
C         36.46602        47.78885        -0.07293
C         37.68972        49.95743         0.68034
C         36.48902        50.64850         0.60133
C         37.77328        52.83301         0.92471
C         36.43508        52.08224         0.95371
C         37.82388        54.29106         0.65337
C         36.54087        54.99234         0.39015
C         37.83261        57.11892        -0.13825
C         36.56813        56.49062         0.41690
C         37.83582        58.61850         0.01634
C         36.61347        59.31955        -0.25827
C         37.90341        61.40920        -0.40858
C         36.66746        60.73250        -0.53149
C         40.23842        40.23249        -0.43482
C         40.16013        41.49176         0.14794
C         38.88000        42.13923        -0.07967
C         40.20919        44.25696         1.09959
C         38.32858        43.22938         0.59917
C         39.99280        45.51561         0.59504
C         38.95477        46.44065         0.90207
C         40.27330        48.54310         0.79306
C         39.02921        47.80072         0.64060
C         40.20674        49.92206         0.96671
C         38.95498        50.64930         0.86893
C         40.28061        52.72873         0.55484
C         38.99454        52.03690         0.78578
C         40.29948        54.24029         0.41983
C         39.01090        54.96649         0.48763
C         40.25138        57.09190         0.55928
C         39.07313        56.41339         0.35679
C         40.21630        58.57358         0.68982
C         39.01212        59.30499         0.23188
C         40.28450        61.43157         0.21291
C         39.07873        60.74266         0.04131
C         42.77591        36.21196        -1.83954
C         42.72099        37.45674        -1.16250
C         41.50546        38.14269        -1.09088
C         42.66422        39.94994         0.32695
C         41.35674        39.32562        -0.27014
C         42.60048        41.38208         0.65117
C         41.39846        42.09397         0.71316
C         42.68110        44.22745         1.13321
C         41.46008        43.53428         0.97709
C         42.82452        45.68398         1.17162
C         41.78580        46.56009         0.66999
C         42.66160        48.56348         1.66832
C         41.53612        47.85645         1.08022
C         42.66661        49.93241         1.64019
C         41.36982        50.69127         1.56297
C         42.69867        52.79177         1.02311
C         41.52107        52.08188         0.98655
C         42.74577        54.22687         0.81921
C         41.55897        54.95353         0.66052
C         42.71488        57.10511         0.80638
C         41.52432        56.40043         0.73263
C         42.76464        58.56928         1.00712
C         41.46630        59.33129         1.00159
C         42.78223        61.41746         0.34163
C         41.49786        60.86529         0.90893
C         45.25506        33.64058        -2.94182
C         44.03600        34.27229        -2.70379
C         45.21663        36.15645        -1.64032
C         43.99155        35.53489        -2.05514
C         45.19382        37.41555        -0.97635
C         43.95267        38.06303        -0.66684
C         45.18294        39.97314         0.31905
C         43.95127        39.31708        -0.02372
C         45.18231        41.31270         0.85766
C         43.86962        41.96479         1.14082
C         45.19450        44.12245         1.71834
C         43.87475        43.43767         1.49110
C         45.20418        45.60984         1.94510
C         43.93564        46.33067         1.68911
C         45.17932        48.50710         2.25829
C         43.87622        47.77542         2.00066
C         45.17153        50.01745         2.26446
C         43.88764        50.72154         1.92869
C         45.26996        52.82053         1.20577
C         43.97642        52.07182         1.27129
C         45.24324        54.28850         0.98583
C         44.01952        54.92398         0.84091
C         45.28350        57.10895         0.41977
C         43.97399        56.37186         0.55432
C         45.30158        58.57911         0.49444
C         44.04895        59.31501         0.76171
C         45.22214        61.38421         0.04090
C         43.98510        60.74802         0.36714
C         46.45536        34.24372        -2.56492
C         47.67272        36.15314        -1.57109
C         46.45939        35.50713        -1.91984
C         47.67623        37.40629        -0.95153
C         46.42112        38.04897        -0.62132
C         47.68399        39.88745         0.45425
C         46.40417        39.29707         0.04283
C         47.67599        41.35331         0.90719
C         46.37728        42.04720         0.99449
C         47.62634        44.20389         1.15433
C         46.43326        43.45808         1.27428
C         47.62333        45.66345         1.33793
C         46.45850        46.33952         1.67566
C         47.69476        48.58068         1.63008
C         46.40418        47.81601         1.72716
C         47.77356        50.00184         2.12422
C         46.48581        50.78268         2.18943
C         47.80737        52.90933         1.43476
C         46.52277        52.23205         1.78678
C         47.75780        54.27277         1.05962
C         46.51868        54.98463         0.89511
C         47.77044        57.12607         0.62629
C         46.53760        56.37368         0.63155
C         47.75059        58.57265         0.42209
C         46.49095        59.27078         0.36039
C         47.67453        61.38511        -0.09942
C         46.45612        60.71469         0.12715
C         48.90758        38.08921        -0.71205
C         50.12998        40.09522         0.00714
C         48.93862        39.33358        -0.09729
C         50.12488        41.46168         0.31613
C         48.89287        42.14670         0.66654
C         50.01092        44.33483         0.23588
C         48.83954        43.52926         0.75213
C         50.11901        45.70883         0.85591
C         48.85143        46.43591         1.15281
C         50.10148        48.59156         0.97070
C         48.92081        47.78625         1.40621
C         50.26529        49.98025         1.49771
C         49.04539        50.76826         1.89948
C         50.30032        52.89478         1.40607
C         49.03054        52.22021         1.58180
C         50.31199        54.33893         1.19727
C         49.04196        54.95816         0.63782
C         50.23709        57.24579         0.98698
C         48.97734        56.46046         0.75556
C         50.22027        58.63696         0.39776
C         48.95383        59.28773         0.26281
C         50.12134        61.39844        -0.24862
C         48.91514        60.70876        -0.04067
C         51.33199        42.21390         0.19828
C         52.53212        44.33573         0.00143
C         51.33829        43.60551         0.20924
C         52.58280        45.74424         0.04327
C         51.37394        46.45854         0.53543
C         52.55159        48.70263        -0.07797
C         51.29057        47.93755         0.35118
C         52.67885        50.07775         0.54893
C         51.53359        50.71282         1.24264
C         52.80430        52.86233         1.37035
C         51.50079        52.18831         1.32580
C         52.78977        54.39130         1.45990
C         51.48996        55.04669         1.19143
C         52.75422        57.21367         0.49171
C         51.48849        56.45155         0.68215
C         52.70448        58.69683         0.31383
C         51.41489        59.33561         0.18612
C         52.56676        61.43179        -0.43736
C         51.37281        60.74357        -0.16397
C         53.77168        46.47444        -0.09080
C         55.01905        48.59899        -0.07439
C         53.83113        47.89405         0.01282
C         55.04618        50.04525        -0.07537
C         53.85326        50.76109         0.40102
C         55.06211        52.88479         0.30316
C         53.97753        52.18018         0.75038
C         55.21633        54.34001         0.54283
C         54.06906        55.11293         1.12241
C         55.29979        57.29214         0.56200
C         54.01599        56.63655         1.10303
C         55.20725        58.76674         0.16284
C         53.87099        59.40594         0.08204
C         54.98836        61.41482        -0.84714
C         53.82379        60.78010        -0.38158
C         56.16034        50.75038        -0.44169
C         57.44729        52.92058        -0.48867
C         56.10429        52.24203        -0.59739
C         57.51455        54.29639        -0.46954
C         56.20308        55.06249        -0.36873
C         57.51740        57.18285        -0.51452
C         56.40025        56.52071        -0.02291
C         57.49982        58.61068        -0.76989
C         56.31597        59.35146        -0.59614
C         57.36330        61.34247        -1.55545
C         56.22592        60.71877        -1.01308
C         58.71114        55.01280        -0.73486
C         59.84563        57.09514        -1.34522
C         58.70827        56.41950        -0.87269
C         59.83002        58.49066        -1.61048
C         58.63273        59.24046        -1.36532
C         59.73158        61.23841        -2.27666
C         58.57327        60.62364        -1.72676
C         60.95822        59.14916        -2.15414
C         60.90103        60.50944        -2.47141
O         44.52171        56.67902        -0.79731
O         39.09797        43.65373         1.71417
O         44.80629        52.03072         0.04557
O         46.79082        48.48096         0.46369
O         52.10753        56.54636        -0.64247
O         46.49388        51.84240         3.19023
O         40.58873        58.92426         2.10149
O         55.20931        54.70759         1.95877
O         50.17970        48.41364        -0.49827
O         37.40662        48.31372        -1.10805
O         33.63983        55.87092         1.51816
O         55.60915        55.10888        -1.66270
O         48.63110        50.30196         3.24670
O         44.33157        50.59659         3.31380
O         51.09769        45.95297         1.90528
O         43.67702        42.42369         2.52734
O         43.60155        58.99816         2.14334
O         36.01028        57.12218         1.59156
O         45.26148        44.68634         3.07770
O         55.70874        58.34271         1.48408
O         44.46810        47.94461         3.36743
O         40.36138        53.36324        -0.77049
O         41.78948        39.12895         1.12576
O         40.96072        46.00717        -0.31382
O         52.93833        53.58177         2.64985
O         37.09779        52.45584         2.20262
O         47.79715        40.25223         1.86305
O         51.28254        50.03579         2.55480
O         37.79721        56.88848        -1.58221
O         37.80143        45.91916         1.50102
O         35.95716        54.44065        -0.87967
H         37.69339        55.92381        -1.73643
O         49.68409        44.61881        -1.16841
H         49.69548        43.76949        -1.65796
O         49.14006        54.69791        -0.81808
H         48.34344        55.08197        -1.24400
O         34.58085        52.91100         2.23345
H         35.35428        52.95900         2.84210
O         52.42410        48.93480        -1.51240
H         51.46797        49.08327        -1.69999
O         55.67152        52.48360        -1.97588
H         55.56583        53.48650        -2.07677
O         40.97822        50.92595         2.97011
H         41.78932        50.90428         3.52365
O         41.41684        61.38319         2.27366
H         40.94820        60.69760         2.80545
O         53.88101        57.01022         2.49264
H         54.61622        56.58322         2.98424
O         50.30503        57.43455         2.44641
H         49.52477        57.96122         2.72138
H         29.62448        56.55776        -1.42753
H         28.49861        58.64596        -2.13736
H         30.72879        62.34336        -2.37293
H         28.60944        61.07377        -2.67252
H         32.04271        52.34551        -0.78173
H         30.78225        54.47615        -0.94880
H         33.11690        62.40183        -1.75121
H         34.28239        48.11460        -0.22990
H         33.22039        50.23126        -0.53020
H         35.50089        62.46554        -1.14702
H         36.64912        43.57146        -0.69651
H         35.57877        45.98927        -1.00877
H         37.95001        62.48774        -0.61954
H         39.39366        39.87882        -1.04524
H         38.25069        41.66614        -0.85047
H         40.29209        62.51708         0.02731
H         41.83726        35.76243        -2.19595
H         40.64642        37.79079        -1.68092
H         42.77775        62.48239         0.06187
H         45.27215        32.66152        -3.44073
H         43.09558        33.79710        -3.01718
H         45.21083        62.45154        -0.22564
H         47.41264        33.74371        -2.77007
H         48.62966        35.66749        -1.81281
H         47.66427        62.46432        -0.31287
H         49.84349        37.63626        -1.07153
H         51.07628        39.63140        -0.30940
H         50.09396        62.47369        -0.48017
H         52.27763        41.66973         0.05381
H         53.46214        43.77573        -0.18302
H         52.52043        62.48111        -0.76525
H         54.70991        45.92610        -0.27151
H         55.97183        48.05674        -0.17973
H         54.92492        62.46212        -1.17925
H         57.06181        50.21893        -0.78455
H         58.36810        52.32191        -0.59098
H         57.31795        62.40218        -1.84638
H         59.62743        54.45356        -0.98470
H         60.75980        56.52179        -1.56487
H         59.69296        62.30176        -2.55370
H         61.87959        58.57809        -2.33738
H         61.78590        61.00410        -2.89567
