         320
 CSIRO Nanostructure Databank - Neutral Graphene Oxide Data Set
C         30.06116        31.46236        -0.05006
C         30.44710        32.62795         0.08516
C         30.23135        35.96145         0.25779
C         30.48789        37.20461         0.22279
C         30.49403        40.34774         1.07657
C         30.53049        41.59595         1.09409
C         32.41121        29.06037        -0.26311
C         31.20363        29.33314        -0.21686
C         33.01299        31.78092         0.10441
C         29.97621        30.04170        -0.08984
C         32.77002        33.05513        -0.35468
C         31.39873        33.72526        -0.33796
C         32.72878        35.94960        -0.13772
C         31.46561        35.04941         0.43529
C         32.84173        37.35711         0.51727
C         31.51026        38.12105         0.30659
C         32.82390        40.25908         0.45283
C         31.41177        39.59622         0.12045
C         32.77784        41.77970         0.39943
C         31.62867        42.46864         0.76981
C         32.74284        44.50692         0.23612
C         31.75254        43.90967         0.70472
C         35.11218        27.37965        -0.36804
C         34.93566        28.61286        -1.12297
C         33.71119        29.46790        -0.82732
C         35.24965        31.64337        -1.11982
C         33.94926        30.94603        -0.70549
C         35.26163        32.97287        -0.33163
C         34.02288        33.83575        -0.74235
C         35.30758        35.93262        -0.23014
C         34.03511        35.15410         0.06691
C         35.21482        37.40189        -0.30855
C         34.05810        38.10229        -0.05491
C         35.23736        40.37522        -0.34951
C         33.92399        39.60092        -0.41951
C         35.24878        41.73396        -0.23281
C         33.94599        42.51615        -0.24579
C         35.28634        44.70730        -0.41386
C         34.14932        43.99739         0.31440
C         35.54251        46.13014         0.00573
C         37.29589        27.36013         0.63967
C         35.94380        26.85144         0.38338
C         37.57044        28.62305         0.14690
C         36.32723        29.46812        -0.19587
C         37.78078        31.55950        -0.67396
C         36.51139        30.80711        -0.86570
C         37.72992        33.05652        -0.56520
C         36.55421        33.75425        -0.43670
C         37.76872        35.89454         0.17762
C         36.49454        35.21543        -0.29598
C         37.93518        37.32577        -0.36777
C         36.34872        38.07108        -1.06327
C         37.79009        40.34400        -0.61861
C         36.43580        39.69396        -0.99615
C         37.80616        41.86157        -0.56760
C         36.55199        42.46232         0.11358
C         37.83848        44.63772        -0.01912
C         36.64249        43.98610        -0.10025
C         37.97829        46.15949         0.28437
C         36.63464        46.70924        -0.04059
C         41.00832        24.73579         2.18558
C         39.85259        25.17860         2.11224
C         40.38344        27.23446         1.02884
C         39.38019        26.37744         1.46092
C         40.16616        28.75506         0.89924
C         38.92921        29.28659         0.11611
C         40.16091        31.59958         0.27036
C         38.98561        30.77474        -0.18041
C         40.23463        33.02630        -0.20567
C         39.03789        33.77555        -0.82064
C         40.25358        35.75800         0.06910
C         39.06473        35.15853        -0.18261
C         40.44970        37.00577         0.87262
C         38.41048        38.34027         0.57018
C         40.20181        40.24944         0.52918
C         38.95475        39.58468        -0.04781
C         40.37145        41.66336        -0.12509
C         39.07373        42.46203         0.14381
C         40.39464        44.62954         0.49764
C         39.20309        43.94979        -0.24389
C         40.50640        46.12015         0.16492
C         39.18805        46.76854        -0.42847
C         40.42353        48.85910        -0.00071
C         39.38484        48.22943        -0.17853
C         43.44079        24.88690         1.24558
C         42.23128        25.44591         1.84919
C         42.73093        27.34221         0.07823
C         41.81832        26.79130         1.15335
C         42.68513        28.84348        -0.20238
C         41.44776        29.48579         0.42408
C         42.70217        31.59023         0.53536
C         41.43010        30.84592         0.41033
C         42.79028        33.01220         0.11121
C         41.58219        33.65130        -0.56832
C         42.85015        35.85599         0.13695
C         41.58023        35.15812        -0.27113
C         42.84413        37.26089         0.76497
C         41.52388        37.95182         0.38614
C         42.76597        40.12051         0.75177
C         41.48072        39.43304         0.28653
C         42.77500        41.62438         0.52544
C         41.63765        42.37435         0.35384
C         42.82922        44.52352         1.04385
C         41.73826        43.89881         0.16522
C         42.84526        46.08938         1.17944
C         41.61247        46.79586         0.55829
C         42.95626        48.61422        -0.37021
C         41.71919        48.40018         0.53842
C         44.20320        25.46984         0.46628
C         45.06172        27.43830        -1.07856
C         43.96370        26.62673        -0.40837
C         45.19302        28.86421        -0.34070
C         44.06428        29.50208         0.08441
C         45.14966        31.73345         1.05967
C         43.93680        30.79320         0.93538
C         45.32398        32.93683         0.39037
C         44.13108        33.67061        -0.19936
C         45.35634        35.90915         0.14053
C         44.12119        35.08246         0.45549
C         45.30978        37.28306         0.07592
C         44.06481        38.03736         0.29573
C         45.16162        40.21538        -0.28643
C         44.01075        39.39974         0.27124
C         45.25154        41.61525         0.34792
C         44.05987        42.26122         0.69568
C         45.40718        44.18814         1.51829
C         44.08597        43.62268         1.23760
C         45.36339        46.42755         1.28249
C         44.19114        46.72507         0.66124
C         43.92085        47.86461        -0.14193
C         47.48070        27.20335        -0.44773
C         46.39481        26.81170        -0.86649
C         47.85431        28.54066         0.02082
C         46.58796        29.40636        -0.11440
C         47.94166        31.50821        -0.05414
C         46.85340        30.79721        -0.53912
C         47.92089        32.97009         0.42214
C         46.63408        33.67714        -0.00655
C         47.85520        35.88653        -0.30430
C         46.67347        35.18857         0.39257
C         47.84981        37.39406        -0.08272
C         46.54050        38.07023        -0.10537
C         47.66777        40.23078        -0.54552
C         46.47002        39.43974        -0.19194
C         47.66040        41.71997        -0.27398
C         46.47759        42.33679         0.37508
C         47.97703        44.33800         0.98939
C         46.57870        43.62796         0.99932
C         47.68275        45.79744         1.04280
C         46.73379        46.57030         0.88091
C         50.41115        28.82828        -0.30635
C         49.14552        29.23392        -0.12119
C         50.38080        31.52277        -0.17567
C         49.17063        30.73495         0.40907
C         50.46427        32.97357         0.40030
C         49.18159        33.75207         0.11305
C         50.36335        35.90978         0.04633
C         49.17777        35.16113        -0.01342
C         50.33522        37.42738         0.16904
C         49.01669        38.09537        -0.18692
C         50.18920        40.36727        -0.32104
C         48.99940        39.51213        -0.77292
C         50.13055        41.85317        -0.55598
C         48.94396        42.47587        -0.35256
C         50.07072        44.57314        -0.44761
C         48.69726        44.00080        -0.33037
C         51.60369        29.36851        -0.21500
C         52.81175        31.66054         0.08018
C         51.77421        30.69828        -0.00209
C         52.89085        32.90192         0.17260
C         51.69791        33.78922        -0.12151
C         52.75280        36.11739        -0.05446
C         51.67981        35.19802         0.46945
C         52.71993        37.34834        -0.14691
C         51.53095        38.17604        -0.54035
C         52.58031        40.60414        -0.38843
C         51.50929        39.64019        -0.14266
C         52.58308        41.84120        -0.44071
C         51.44246        42.65003        -0.99705
C         51.18114        44.04288        -0.51492
O         45.33575        45.36847         2.26663
O         38.03979        26.47651         1.34743
O         39.95313        32.71093         1.18522
O         33.33537        30.36396        -1.92216
O         39.38018        29.76459        -1.18418
O         47.13870        28.99978         1.19346
O         42.39443        26.70609         2.50738
O         42.55821        32.71445         1.50401
O         36.37339        37.65840        -2.31506
O         47.36310        41.17189        -1.62130
O         42.72173        26.53116        -1.14687
O         40.20934        37.00762         2.08501
O         50.70167        40.01414         1.00131
O         37.61976        35.84049         1.60948
O         37.40363        30.96316        -1.98844
O         41.52957        38.60728        -0.90850
O         38.81707        39.75370        -1.47165
O         42.40303        35.87906        -1.24852
O         43.04664        43.85916         2.28480
O         44.83861        40.37776        -1.64763
O         44.77698        27.63644        -2.44027
H         43.80755        27.80522        -2.52255
O         36.55464        42.23333         1.54109
H         35.86750        42.82345         1.93461
O         49.12110        39.32957        -2.20525
H         48.47034        39.93022        -2.63785
O         45.98976        31.23429         1.97969
H         46.74923        31.85678         2.15249
O         37.73239        42.29160        -1.94559
H         37.27857        41.56295        -2.45012
O         32.40582        31.21088         1.16807
H         31.92552        31.89670         1.67675
O         44.22093        33.84210        -1.63325
H         44.21583        32.95347        -2.04909
O         33.01009        37.21067         1.95286
H         33.20282        38.12447         2.29377
O         35.16382        28.52487        -2.47800
H         34.66343        29.24689        -2.92446
O         35.18291        31.87692        -2.53535
H         36.11409        31.79781        -2.87299
O         49.27125        30.62414         1.82686
H         48.50830        30.07481         2.12711
O         32.50438        36.23947        -1.50628
H         32.85665        35.50191        -2.06357
O         41.71954        33.48168        -1.99792
H         42.30343        34.22220        -2.30444
O         38.86003        42.40442         1.55061
H         39.59386        42.88275         2.00560
O         42.12078        44.16959        -1.18633
H         41.33860        43.94902        -1.75805
O         39.54366        44.07793        -1.63283
H         38.97122        43.44982        -2.14648
O         45.97454        31.20427        -1.48222
H         46.25152        32.11184        -1.79936
O         50.54329        37.61704         1.61071
H         49.66962        37.58008         2.05555
O         48.77194        43.88690         2.06858
H         48.43344        44.26737         2.90440
O         38.20079        46.28933         1.69924
H         37.34546        46.15111         2.15868
O         42.48202        29.02274        -1.63304
H         41.52449        28.91205        -1.82958
O         40.55521        41.54624        -1.54469
H         41.06525        40.73245        -1.75111
O         46.90717        35.31694         1.80893
H         46.09785        34.96940         2.25741
O         50.15635        31.59321        -1.57396
H         50.76576        32.26515        -1.96019
O         33.11781        39.89922         1.83242
H         32.41996        40.30855         2.39144
O         39.93903        29.20843         2.25563
H         40.73893        29.01350         2.78979
O         51.48241        42.62875        -2.40158
H         52.25114        43.15052        -2.71034
O         34.12256        34.83350         1.47842
H         34.15422        35.68706         1.97430
O         47.94384        32.94799         1.88734
H         48.83729        32.59122         2.15851
O         33.50178        39.68768        -1.81152
H         34.30808        39.50767        -2.35793
O         51.35586        38.05962        -1.94189
H         51.96797        38.67023        -2.40119
O         31.03823        34.03184        -1.68722
H         31.15131        33.22946        -2.23726
O         43.64432        30.27775         2.25529
H         43.45802        31.05158         2.83037
O         42.90478        37.14981         2.20376
H         41.98249        37.12174         2.56517
O         33.57739        42.64313        -1.63399
H         33.46240        41.73148        -1.99304
O         30.96137        39.85977        -1.19078
H         31.57119        39.42295        -1.82947
O         40.08392        40.33118         1.96361
H         39.32985        39.74545         2.24566
O         39.06718        46.53275        -1.81025
H         39.82240        46.94656        -2.27534
O         38.10403        38.41654         1.78904
H         37.99281        36.66831         2.01452
O         34.50324        43.96799         1.69944
H         33.71186        43.72779         2.22612
O         51.58173        33.92671        -1.53845
H         52.29647        34.52555        -1.84702
O         31.58962        34.76565         1.79919
H         31.83688        35.59221         2.27422
O         39.12545        33.87990        -2.25114
H         40.08108        33.91888        -2.50578
O         50.59050        32.82287         1.82837
H         50.99927        33.64306         2.20475
O         42.77400        39.98924         2.20367
H         41.86551        40.22493         2.52111
O         35.67356        29.76722         1.02796
H         35.67154        28.97294         1.60333
O         35.14363        32.52303         1.03304
H         35.01944        33.32306         1.60454
O         47.65175        35.85494        -1.74051
H         48.35517        36.39492        -2.16074
O         40.25327        44.55397         1.92848
H         39.51649        45.17119         2.18183
O         34.09378        34.20762        -2.12090
H         34.36405        33.40980        -2.64531
O         36.26331        40.07869        -2.39753
H         36.45054        39.21897        -2.89588
O         42.79454        46.39312         2.58028
H         43.03518        45.57251         3.07690
O         28.78827        29.42914        -0.11838
H         28.89049        28.45925        -0.18708
O         38.70877        37.26308        -1.54570
H         38.04866        37.29448        -2.30071
O         47.84030        44.37404        -1.38550
H         48.24658        44.12675        -2.24128
O         35.08359        44.65694        -1.80379
H         35.80315        45.14980        -2.24868
O         44.15846        34.83118         1.88456
H         43.81727        35.64710         2.33818
O         51.74855        35.18189         1.89018
H         51.59622        36.11272         2.19111
O         46.72468        33.64987        -1.45579
H         46.06487        34.28587        -1.82216
O         41.96836        48.90185         1.79894
H         42.50928        48.26404         2.31867
