         274
 CSIRO Nanostructure Databank - Neutral Graphene Oxide Data Set
C        -10.52790         0.58458        -1.56861
C         -9.14010         1.13194        -1.31050
C         -8.68331         0.82260         0.13907
C         -7.27152         1.33322         0.32673
C         -6.33713         0.69417         1.07253
C         -5.12704         1.41866         1.53659
C         -3.81886         0.70267         1.61208
C         -2.55944         1.55484         1.53012
C         -1.28256         0.86045         1.23365
C          0.05629         1.46077         1.59848
C          1.26876         0.73503         1.04457
C          2.40004         1.62901         0.59865
C          3.63039         0.94388         0.01428
C          4.56754         1.88168        -0.42444
C          6.38153         0.50731         0.22725
C          7.56578         1.37579         0.03313
C          8.72638         0.68490        -0.07996
C         10.00594         1.45361         0.20661
C         11.23634         0.62698        -0.08608
C         -9.02980         2.61556        -1.58783
C         -7.98764         3.33454        -1.12408
C         -6.95735         2.65454        -0.29502
C         -5.82076         3.44921         0.25494
C         -5.16868         2.91969         1.51443
C         -3.84865         3.62490         1.83092
C         -2.52159         2.94432         2.20922
C         -1.18608         3.73764         1.82057
C          0.09046         2.96663         1.89667
C          1.46823         3.65231         1.83826
C          2.69340         2.67728         1.67366
C          4.00674         3.34089         1.40947
C          4.91517         2.98623         0.46972
C          6.28759         3.61568         0.54260
C          7.54377         2.84863         0.26160
C          8.72000         3.54885        -0.35058
C          9.91705         2.82323        -0.43144
C         -7.76260         4.77804        -1.56159
C         -6.90311         5.60798        -0.61777
C         -5.75365         4.93843         0.04434
C         -4.87851         5.72755         0.96382
C         -4.03620         4.96433         1.91890
C         -2.16921         6.14790         1.90076
C         -1.00926         5.21588         1.93680
C          0.29381         5.90470         1.61867
C          1.53334         5.09529         1.25354
C          2.81712         5.96916         1.40838
C          4.09967         5.51968         1.54891
C          5.23445         6.04788         0.73744
C          6.33476         5.11229         0.29009
C          7.13217         5.44055        -0.97214
C          8.50768         4.81648        -0.91475
C         -7.09105         6.92799        -0.44213
C         -6.27573         7.82970         0.46983
C         -4.95954         7.23288         1.00488
C         -3.64958         8.00412         1.03761
C         -2.31592         7.29735         1.19373
C         -1.05845         8.09492         0.88538
C          0.24133         7.32591         1.11446
C          1.40218         8.06653         1.21160
C          2.73119         7.42677         1.07666
C          3.80615         8.07021         0.20959
C          4.82996         7.07143        -0.33005
C          6.01794         7.67449        -1.04613
C          7.11413         6.91338        -1.29612
C         -6.06312         9.16086        -0.21357
C         -4.89911         9.80927        -0.27257
C         -3.57926         9.35613         0.31826
C         -2.56143         9.27631        -0.83949
C         -1.16657         8.77127        -0.48029
C         -0.20508         8.93328        -1.41669
C          1.24228         8.57507        -1.34922
C          2.17165         9.54495        -1.12769
C          3.58592         9.40337        -0.54634
C          4.68396         9.68208        -1.55178
C          5.82742         8.97941        -1.66377
C        -10.89128        -0.60497        -1.07256
C         -9.97396        -1.38991        -0.19726
C         -8.84194        -0.66850         0.47514
C         -7.65552        -1.47955         0.96357
C         -6.39506        -0.76013         1.49633
C         -5.06453        -1.43063         1.06400
C         -3.88243        -0.71169         1.11893
C         -2.62298        -1.28613         0.61425
C         -1.28550        -0.65103         1.01590
C         -0.16226        -0.96034         0.04386
C          1.09456        -0.47929         0.19690
C          2.26582        -1.21559        -0.37472
C          3.47143        -0.35577        -0.75920
C          4.80855        -1.23511        -0.86469
C          6.16287        -0.58455        -0.80399
C          7.53172        -1.23786        -1.14506
C          8.66437        -0.85037        -0.13242
C         10.00226        -1.54570        -0.55497
C         11.22486        -0.70815        -0.23010
C         -9.87397        -2.83605        -0.45180
C         -8.72780        -3.55906        -0.19273
C         -7.58194        -2.92111         0.51969
C         -6.26056        -3.55468         0.41407
C         -5.07933        -2.85143         0.67804
C         -3.83348        -3.56557         0.57147
C         -2.60453        -2.79695         0.39111
C         -1.33195        -3.52150         0.67316
C         -0.09442        -3.04467         0.07864
C          1.16626        -3.49883         0.34523
C          2.33463        -2.75584        -0.21703
C          3.67401        -3.42444         0.10379
C          4.91071        -2.68976        -0.42639
C          6.21089        -3.44082        -0.66683
C          7.21193        -2.69873        -1.54003
C          9.24297        -3.91442        -0.39931
C          9.97837        -2.92951         0.08834
C         -8.64702        -4.95221        -0.48120
C         -7.42260        -5.65209        -0.48911
C         -6.13907        -4.83288        -0.39851
C         -5.01763        -5.74048         0.15588
C         -3.74345        -4.97975         0.43937
C         -2.54709        -5.69325         0.57835
C         -1.32272        -5.02248         1.01839
C          0.00967        -5.72327         1.03275
C          1.29369        -4.89105         0.86304
C          2.45962        -5.65532         0.29448
C          3.64985        -4.92729        -0.25553
C          4.94224        -5.71017        -0.59854
C          6.24381        -4.92132        -0.58382
C          7.43946        -5.64705        -0.75252
C          8.77682        -5.04084        -0.92701
C         -7.35729        -7.02902        -0.69345
C         -6.08892        -7.70769        -1.01917
C         -4.82378        -6.95098        -0.75041
C         -3.48809        -7.64844        -0.79376
C         -2.34968        -7.01445        -0.06486
C         -1.09914        -7.77753         0.19753
C          0.02565        -7.15768         0.66517
C          1.29484        -7.95964         0.91026
C          2.56063        -7.07463         0.76395
C          3.87302        -7.76953         0.69097
C          5.09451        -7.00581         0.22354
C          6.34240        -7.78211        -0.07590
C          7.41507        -7.06236        -0.75659
C         -5.96762        -9.17989        -1.11891
C         -4.78018        -9.80763        -1.15600
C         -3.42774        -9.12356        -1.22828
C         -2.38302        -9.88928        -0.37793
C         -1.05693        -9.17141        -0.24201
C          0.14702        -9.79427        -0.42429
C          1.39906        -9.18420        -0.00274
C          2.61421        -9.78406        -0.14424
C          3.82326        -9.31203         0.66984
C          5.11972        -9.92934         0.19635
C          6.25120        -9.25966        -0.07848
O          2.07997        -2.15126        -1.50211
O         -4.52735         7.92602         2.21365
O         -8.01434        -2.54053         1.89417
O          2.56550        -5.35522        -1.14543
O          1.24357        -8.49116         2.21372
O          6.11111        -7.05631         1.23603
O         -1.37295        -4.00704         2.04189
O         -2.69328        -1.84634        -0.71747
O          3.84745         8.20228         1.64884
O         -3.20444         5.71207         2.73417
O        -10.05560        -0.95587         1.23182
O          0.85985         3.40676         3.10672
O          6.55248         6.06891         1.35293
O         -5.38069        -6.91775        -2.09236
O         -2.54053        -6.83876        -1.56373
O         -4.59927         0.93935         2.81527
O          7.15120         3.20006         1.63495
O          5.90468         0.34043         1.34336
O          4.34428         4.35505         2.30477
O         -5.46644        -6.29886         1.41913
O          7.48214        -3.08403        -2.66230
O          5.97559        -2.75525         0.60777
O          5.43760        -0.73177        -2.08403
O         -0.07806         5.75653         3.02237
O          0.85079        -5.30831         2.15905
O          3.41338        -7.18152         1.94248
O         -0.30345        -2.02269        -0.86086
O          0.89081         0.62218         2.45296
O         -4.43083         5.35336        -0.42317
O         -5.61219         2.66016        -0.93672
O         -1.98897         1.58916         0.18363
O          5.28079         1.80375        -1.56236
H          4.93199         1.05972        -2.12219
O          1.41826         9.39962         1.35383
H          0.49024         9.71565         1.52620
O         -2.40608         2.74000         3.61904
H         -2.39802         3.61453         4.06273
O         -6.46565        -0.81129         2.93110
H         -6.93670        -1.64263         3.16998
O         -2.94527       -10.01748         0.93641
H         -2.24348       -10.32166         1.54884
O          3.71230        -3.36550         1.54394
H          4.65516        -3.38045         1.83208
O          4.10042         6.30587        -1.34770
H          4.74704         5.69958        -1.79913
O          6.36882         4.78094        -2.06059
H          6.90434         4.83328        -2.88115
O          1.53622         7.26173        -1.60059
H          2.51475         7.10710        -1.66027
O         -3.13891         8.38209        -1.79872
H         -2.48228         8.20148        -2.50212
O          4.80191        -6.16980        -1.97514
H          3.84752        -6.08871        -2.21775
O         -7.11929         8.06777         1.62896
H         -6.53213         8.41633         2.33695
O         10.03004         1.66351         1.65323
H          9.81327         0.81080         2.08658
O         -9.51382         1.58074         1.03853
H        -10.10398         0.93441         1.49547
O         -3.00443        -9.17682        -2.60274
H         -2.61913        -8.29762        -2.82409
O         10.07866        -1.76622        -1.97173
H         10.07007        -0.89659        -2.42400
O          1.47407         4.87552        -0.17181
H          1.29618         5.73373        -0.63049
O         -1.09309         9.17609         1.88062
H         -1.17793         8.75817         2.76447
O         -6.08115         3.30078         2.58500
H         -5.87022         2.73591         3.36151
O          3.59686        -9.78554         2.00685
H          2.77768        -9.30454         2.34020
O          3.73369        10.47438         0.40809
H          3.57805        10.08938         1.30280
O         -5.79655        -4.36192        -1.72065
H         -5.68701        -5.15936        -2.29677
O         -8.20941         0.41956        -2.16871
H         -8.32470         0.73803        -3.08787
O          1.81772         2.35099        -0.53105
H          1.91207         1.78668        -1.33121
O         -3.17642        10.39852         1.22509
H         -3.70342        10.29689         2.04485
O          7.91832        -0.57457        -2.36486
H          7.79262        -1.23425        -3.09054
O         -9.00703         5.42124        -1.81932
H         -9.51613         5.45808        -0.98371
O          3.17227         0.07094        -2.11977
H          2.86524        -0.72348        -2.61573
O          8.38421        -1.31895         1.19217
H          7.53775        -0.93970         1.52017
H         -5.50631        -5.57983         2.08453
O          2.91812         1.99943         2.91626
H          3.05062         2.67180         3.61696
O         -0.96067        -1.27653         2.27688
H         -0.17814        -0.80946         2.67030
H         12.18903        -1.23431        -0.32375
H         12.20473         1.13982         0.03041
H         10.79129         3.25237        -0.94424
H          9.34887         5.35213        -1.38168
H          7.94563         7.33227        -1.88523
H          6.62631         9.33559        -2.33297
H          4.58303        10.62936        -2.10220
H          1.76739        10.55958        -0.99151
H         -0.49980         9.48839        -2.32874
H         -2.46554        10.30393        -1.29715
H         -4.86115        10.79474        -0.76424
H         -6.96222         9.62208        -0.65192
H         -7.94590         7.40977        -0.94391
H         -7.21275         4.73576        -2.54337
H         -9.78742         3.10014        -2.22493
H        -11.21623         1.15685        -2.21053
H        -11.88154        -1.03388        -1.29193
H        -10.70705        -3.32376        -0.98095
H         -9.56972        -5.48108        -0.76622
H         -8.28869        -7.61565        -0.72096
H         -6.89881        -9.76711        -1.10405
H         -4.76288       -10.90690        -1.21199
H         -2.22002       -10.90887        -0.82821
H          0.17740       -10.81904        -0.82836
H          2.68760       -10.74991        -0.67087
H          5.13221       -11.02946         0.15041
H          7.15263        -9.81370        -0.38460
H          8.31690        -7.61442        -1.06417
H          9.49075        -5.65689        -1.50767
H         10.46058        -3.05251         1.07443
