         404
 CSIRO Nanostructure Databank - Neutral Graphene Oxide Data Set
C          1.11856         3.63832        -1.62776
C         -0.04448         4.35209        -1.80200
C          1.15000         6.48049        -1.61948
C         -0.03292         5.76740        -1.78087
C          1.16149         7.94021        -1.45573
C         -0.04239         8.64582        -1.25081
C          1.16968        10.73187        -0.88545
C         -0.03033         9.99946        -0.95029
C          1.10057        12.10123        -0.33887
C          0.18365        12.48243         0.66201
C          1.31465        14.64122         0.97341
C          0.25072        13.75143         1.24290
C          1.41206        15.97495         1.55114
C          0.61646        16.37391         2.59663
C          1.57324        18.61706         2.54668
C          0.67730        17.70315         3.08409
C          1.47738        20.97400         2.41943
C          0.26189        21.67936         2.51028
C          1.29502        23.51803         1.31010
C          0.15718        22.91550         1.89956
C          1.26699        24.90977         0.91397
C          0.04870        25.63513         0.82780
C          1.25077        27.72583         0.45829
C          0.04012        26.98935         0.57880
C          1.25104        29.16174         0.32042
C          0.03485        29.88324         0.17438
C          1.21694        32.01603         0.20797
C          0.01937        31.25686         0.11119
C          1.17270        33.46082         0.22596
C         -0.01217        34.19963         0.13520
C          1.13355        36.33103        -0.27215
C         -0.03535        35.58829        -0.10292
C          1.15295        37.67617        -0.75993
C          3.56486         3.60686        -1.32767
C          2.36559         4.31964        -1.48076
C          3.62329         6.43921        -1.45400
C          2.39001         5.75814        -1.51783
C          3.67414         7.92515        -1.72638
C          2.38030         8.65419        -1.41482
C          3.70291        10.71783        -1.09203
C          2.39664        10.05785        -1.19585
C          3.85544        12.10709        -1.15829
C          2.05115        13.07754        -0.69360
C          3.61123        14.93110         0.00070
C          2.31009        14.23805         0.04464
C          3.62009        16.25697         0.45243
C          2.32681        16.95428         0.82997
C          3.65723        19.09553         1.20635
C          2.53275        18.29389         1.54000
C          3.83637        20.58626         1.63750
C          2.56935        21.43035         1.68697
C          3.71877        23.46904         0.83991
C          2.51783        22.78522         1.23074
C          3.71929        24.86323         0.63291
C          2.48400        25.59665         0.67457
C          3.72100        27.73865         0.45448
C          2.48121        27.01735         0.50375
C          3.70708        29.14682         0.45854
C          2.47882        29.88253         0.36331
C          3.68998        32.07211         0.32446
C          2.45987        31.32578         0.31974
C          3.71281        33.46554         0.18698
C          2.43937        34.18812         0.34950
C          3.65633        36.34161        -0.38867
C          2.41632        35.71185         0.07026
C          3.61185        37.68998        -0.82860
C          2.33405        38.34125        -0.97485
C          6.01240         3.56927        -1.06046
C          4.79825         4.28097        -1.23004
C          6.09858         6.38073        -1.22402
C          4.82871         5.71711        -1.30816
C          6.10044         7.82265        -1.03323
C          4.89958         8.56253        -1.11043
C          6.11332        10.65373        -0.56394
C          4.89984         9.95729        -0.87450
C          6.13443        12.07332        -0.38001
C          4.94031        12.83336        -0.59065
C          6.08189        14.89657         0.12400
C          4.86040        14.22841        -0.22399
C          6.06802        16.29243         0.37677
C          4.82919        16.99905         0.49916
C          6.08001        19.10379         0.44900
C          4.80764        18.40499         0.73103
C          6.11966        20.58583         0.47423
C          4.91940        21.32694         0.87093
C          6.16917        23.38982         0.33107
C          4.93755        22.70344         0.70422
C          6.16523        24.83334         0.20372
C          4.94941        25.56568         0.38121
C          6.19689        27.67000         0.21533
C          4.96552        26.99317         0.36890
C          6.28601        29.12099         0.43053
C          4.97712        29.87492         0.63492
C          6.22989        32.08273         0.07171
C          4.96997        31.36932         0.50440
C          6.13345        33.49408        -0.35977
C          4.91681        34.19488        -0.11798
C          6.07281        36.29530        -0.73889
C          4.87092        35.60837        -0.40037
C          6.05639        37.71170        -0.99711
C          4.82034        38.37312        -1.09368
C          8.41675         3.35579        -0.80709
C          7.26830         4.18903        -1.10715
C          8.54625         6.38926        -1.18066
C          7.30742         5.64504        -1.23956
C          8.54997         7.78366        -0.78402
C          7.31001         8.49810        -0.71258
C          8.54787        10.58739        -0.21932
C          7.32239         9.90591        -0.47246
C          8.54944        11.98445        -0.01002
C          7.35780        12.74207        -0.08084
C          8.52001        14.81211         0.58840
C          7.34989        14.17370         0.16618
C          8.48121        16.22165         0.99783
C          7.29754        16.99856         0.63626
C          8.60279        19.10914         0.73563
C          7.35228        18.38473         0.65778
C          8.62407        20.55235         0.54277
C          7.42207        21.26807         0.49757
C          8.64719        23.32436        -0.04894
C          7.37868        22.67596         0.29915
C          8.63221        24.82040        -0.23055
C          7.37108        25.54097        -0.01513
C          8.64264        27.67023        -0.18402
C          7.40244        26.96057         0.00179
C          8.66015        29.10764        -0.34737
C          7.50098        29.82863        -0.03047
C          8.53589        31.94033        -1.06335
C          7.37495        31.25290        -0.42118
C          8.52910        33.46258        -1.31321
C          7.28933        34.16493        -0.79141
C          8.53939        36.29511        -0.92651
C          7.28851        35.57637        -0.86238
C          8.52089        37.74149        -1.06949
C          7.29263        38.40096        -1.17876
C         10.98598         3.24099        -0.77261
C          9.71062         3.66789        -1.21637
C         11.04231         6.27722        -1.06415
C          9.77077         5.78276        -1.48579
C         11.02028         7.75664        -0.96952
C          9.76383         8.46333        -0.64577
C         11.01222        10.51863        -0.06572
C          9.80402         9.86527        -0.31152
C         11.05217        11.88084         0.58244
C          9.84212        12.67867         0.14827
C         11.08526        14.73485         1.03588
C          9.82803        14.14070         0.46529
C         11.07612        16.20854         1.33861
C          9.79319        16.99691         1.25088
C         11.09825        19.10588         0.66983
C          9.80793        18.42057         0.91067
C         11.12809        20.58594         0.66390
C          9.89136        21.26608         0.51146
C         11.13181        23.39197         0.32225
C          9.91677        22.66129         0.29198
C         11.11420        24.83171         0.14978
C          9.90204        25.52820        -0.04304
C         11.09297        27.64312        -0.22490
C          9.86151        26.93953        -0.15717
C         11.07349        28.99738        -0.73257
C          9.89451        29.74688        -0.82473
C         11.08731        32.11254        -1.32936
C          9.84497        31.19507        -1.24181
C         11.01542        33.52720        -0.90882
C          9.79452        34.18510        -0.88381
C         10.97404        36.38476        -0.37795
C          9.74154        35.60961        -0.76330
C         10.98680        37.78567        -0.95225
C          9.76200        38.43292        -1.17882
C         13.38117         3.22028        -0.75314
C         12.19116         4.01682        -0.78431
C         13.42376         6.26099        -0.51180
C         12.18670         5.50770        -0.78182
C         13.54253         7.69361        -0.73396
C         12.30208         8.48678        -0.86176
C         13.56863        10.53922        -0.02566
C         12.27948         9.80197        -0.16185
C         13.55592        12.00785         0.13975
C         12.35171        12.66138         0.40316
C         13.59487        14.74896         0.73302
C         12.37328        14.05756         0.69777
C         13.65857        16.17560         1.10465
C         12.38155        16.94707         1.33731
C         13.62298        19.12684         1.16683
C         12.39873        18.37716         0.89664
C         13.58235        20.59107         1.18833
C         12.34134        21.29814         0.76045
C         13.60172        23.47345         0.65501
C         12.36082        22.71778         0.60937
C         13.58165        24.87963         0.47992
C         12.33571        25.57510         0.26906
C         13.52596        27.81660         0.34857
C         12.30000        26.98160         0.07377
C         13.55099        29.06968        -0.49773
C         12.40151        29.44147        -1.11968
C         13.57005        32.10638        -0.80301
C         12.43375        31.55282        -1.37231
C         13.51368        33.52936        -0.55706
C         12.27048        34.22078        -0.64801
C         13.47464        36.34031        -0.61374
C         12.26332        35.63246        -0.57284
C         13.45514        37.76498        -0.89485
C         12.21461        38.43691        -1.10219
C         15.93776         3.25865        -0.30725
C         14.61331         3.57549        -0.11879
C         15.89407         6.18801        -0.08046
C         14.53651         5.69003         0.08957
C         15.97545         7.66656        -0.42281
C         14.71392         8.39032        -0.55679
C         16.04380        10.57973        -0.37368
C         14.74438         9.89283        -0.72874
C         15.99948        11.98823        -0.24795
C         14.79551        12.70685         0.03988
C         16.02130        14.87153         0.22034
C         14.82078        14.11674         0.33282
C         16.06658        16.28230         0.52536
C         14.88827        16.94601         0.85204
C         16.19350        19.12187         1.29835
C         14.87121        18.36286         1.29479
C         16.24724        20.65479         1.45876
C         14.88459        21.38001         1.27668
C         16.07233        23.50090         0.67721
C         14.86877        22.80069         0.82207
C         16.09208        24.92460         0.49803
C         14.82464        25.63841         0.45337
C         16.01932        27.81774         0.29042
C         14.79732        27.01682         0.25180
C         16.06801        29.17939        -0.32767
C         14.79969        29.87398        -0.72061
C         15.98890        32.07667        -0.34544
C         14.81236        31.37469        -0.66861
C         15.99069        33.53418        -0.24014
C         14.73842        34.23113        -0.38917
C         15.95435        36.36326        -0.50506
C         14.71843        35.65004        -0.48626
C         15.91220        37.74649        -0.92166
C         14.66786        38.41208        -1.11156
C         18.36695         3.27923         0.35163
C         17.01556         3.91874         0.56047
C         18.29546         6.12463         0.45308
C         17.09901         5.44568         0.37322
C         18.34955         7.61920         0.51819
C         17.15450         8.41346         0.08885
C         18.49104        10.50198         0.04316
C         17.24848         9.86546        -0.19206
C         18.58274        11.94594        -0.24657
C         17.25092        12.72148        -0.42057
C         18.58345        14.91487        -0.11347
C         17.23359        14.20921        -0.27932
C         18.56242        16.32801         0.31821
C         17.33857        17.01008         0.51573
C         18.56580        19.13348         0.50424
C         17.37338        18.40950         0.76244
C         18.51156        20.58928         0.37707
C         17.37071        21.28878         0.66838
C         18.61620        23.51445         0.35534
C         17.36823        22.77657         0.73100
C         18.56242        24.97304         0.12030
C         17.31776        25.62562         0.34165
C         18.56499        27.81990        -0.01091
C         17.34903        27.08756         0.37006
C         18.53062        29.24645        -0.03465
C         17.29178        29.96721        -0.10586
C         18.45789        32.10250         0.07214
C         17.24662        31.36486        -0.17060
C         18.39946        33.51168         0.32116
C         17.17715        34.27431         0.03436
C         18.34639        36.58976        -0.09827
C         17.17310        35.72192        -0.14382
C         18.32968        37.86932        -0.75128
C         17.10493        38.42433        -1.17889
C         19.52541         3.97054         0.39831
C         20.74608         6.12688         0.59171
C         19.55680         5.41719         0.52252
C         20.79765         7.54990         0.59053
C         19.65277         8.32669         0.53073
C         20.84297        10.53306         0.66868
C         19.65776         9.78000         0.42847
C         20.89459        11.91444         0.57418
C         19.78933        12.69967         0.14488
C         20.98952        14.86345         0.40804
C         19.80522        14.11587         0.12162
C         21.00701        16.23781         0.43777
C         19.79916        17.01457         0.39410
C         21.00666        19.18196         0.08588
C         19.78998        18.44174         0.35758
C         20.97854        20.49727        -0.21806
C         19.71816        21.26196        -0.19480
C         21.01558        23.55185        -0.35328
C         19.76805        22.76781        -0.23709
C         20.98473        24.90619        -0.29321
C         19.75813        25.66456        -0.12909
C         20.96385        27.87510        -0.37459
C         19.77118        27.11739        -0.19519
C         20.95708        29.25157        -0.26010
C         19.74845        29.96972        -0.06888
C         20.87129        32.07808         0.55160
C         19.70075        31.39920         0.14824
C         20.77519        33.37899         1.01309
C         19.55035        34.05788         0.92702
C         20.65331        37.14005         0.62538
C         19.51862        36.33522         0.65639
C         20.66587        38.29351        -0.18116
C         19.51059        38.66234        -0.84044
O         18.03446        12.28059        -1.56227
O         16.72165        27.70738         1.56277
O         12.52936        30.39777        -2.13826
O         11.84664        18.51892        -0.48734
O         17.39130         8.14303         1.52025
O         15.67886        18.53004         2.53339
O          5.88912        31.96978         1.48175
O         18.32612        23.22970         1.76813
O          1.60978        19.83440         3.22758
O         19.43011        22.00065        -1.44691
O          8.91805        16.60519         2.34903
O          9.75495         4.62780        -2.25484
O          7.48812        31.33940        -1.90196
O         17.90023        14.83122        -1.41990
O         15.65584        29.23286        -1.74437
O          8.63679        23.92177        -1.39832
O         10.09388        13.65320        -0.90961
O         16.17368         6.68066        -1.47558
O          5.97397        19.84771        -0.83474
O          5.77355        29.45586         1.78494
O          2.47776        35.17321         1.42980
O         11.66254         8.44208        -2.16120
O         14.37700         4.56553         0.89615
O          2.85479        12.83683        -1.81661
O         14.07444        21.19420         2.48046
O         13.05068         9.79397         1.12137
O         19.51257        35.29079         1.58448
O         11.00279        15.20944         2.40167
O         10.35688        31.64406        -2.53916
O         13.18304        16.58503         2.47515
O          8.46031        33.62844        -2.75962
H          9.06362        32.95242        -3.15262
O         10.87433        36.56733         1.08606
H         10.06052        37.08785         1.25834
O          3.86571         8.04581        -3.18337
H          3.89711         9.00276        -3.39633
O         14.52613        10.17405        -2.14242
H         15.23517         9.73841        -2.66035
O         16.68798         3.68327         1.96046
H         15.77726         4.03149         2.10286
O         16.63100        20.90141         2.83032
H         15.91385        20.52444         3.38988
O          1.64627        17.30695        -0.42889
H          1.54517        16.47801        -0.94470
O          4.35129        20.51156         3.00792
H          3.60553        20.20657         3.57424
O         10.91010        11.64161         2.01464
H         11.64573        11.04096         2.27574
O         13.44311        28.24837         1.75362
H         13.67909        27.48377         2.32120
H          1.10571         2.53903        -1.61401
H         -1.00126         3.82775        -1.93386
H         -0.99161         6.29223        -1.88952
H         -1.00666         8.12207        -1.28193
H         -0.98178        10.51113        -0.74852
H         -0.59629        11.78183         0.99178
H         -0.52088        14.03650         1.97100
H         -0.07073        15.66578         3.08031
H          0.04813        18.01026         3.92853
H         -0.57636        21.25006         3.07336
H         -0.78962        23.46636         1.96875
H         -0.91085        25.11474         0.94685
H         -0.92789        27.50297         0.51771
H         -0.91896        29.34529         0.10225
H         -0.94479        31.76858        -0.00388
H         -0.97942        33.67888         0.14837
H         -1.00711        36.07643        -0.26745
H          0.19409        38.18233        -0.94513
H          3.54517         2.50706        -1.30664
H          2.32037        39.38528        -1.31965
H          5.96398         2.47723        -0.93310
H          4.79150        39.43762        -1.36939
H          8.24028         2.45528        -0.19910
H          7.27470        39.48668        -1.35682
H         11.05977         2.23173        -0.33672
H          9.75665        39.49829        -1.45587
H         13.28803         2.19095        -1.13485
H         12.23280        39.48950        -1.42473
H         16.23211         2.53813        -1.08342
H         14.67711        39.46919        -1.41649
H         18.39046         2.18318         0.25444
H         17.08410        39.44015        -1.59924
H         20.48771         3.44304         0.31045
H         21.69618         5.57328         0.61014
H         21.78891         8.02489         0.59556
H         21.75007        10.00540         0.99438
H         21.83707        12.41157         0.84171
H         21.94094        14.32861         0.53215
H         21.96994        16.74724         0.57579
H         21.96181        18.64151         0.04460
H         21.90133        21.01317        -0.51613
H         21.96525        23.03502        -0.54963
H         21.92915        25.45473        -0.40924
H         21.91978        27.36707        -0.55712
H         21.90771        29.79442        -0.35264
H         21.82975        31.54698         0.61362
H         21.63766        33.88594         1.46420
H         21.51693        36.88137         1.25098
H         21.56505        38.92227        -0.23067
H         19.46428        39.60919        -1.39641
