         344
 CSIRO Nanostructure Databank - Neutral Graphene Oxide Data Set
C          1.53494         2.40945         2.57108
C          1.43007         3.74526         2.11395
C          2.69750         1.68314         2.45475
C          2.52294         4.43232         1.57038
C          1.42267         6.68396         1.75741
C          1.34970         7.98410         1.38927
C          2.53739         5.84677         1.36545
C          2.33533         8.54187         0.39326
C          1.21323        10.79652         0.46631
C          1.21232        12.17529         0.32040
C          2.39588        10.05024         0.34898
C          2.40177        12.87636        -0.02528
C          1.20222        15.08321        -0.07288
C          1.24183        16.42901         0.16035
C          2.39281        14.30033        -0.18127
C          2.53214        17.08138         0.56788
C          2.54325        18.58276         0.44062
C          3.79174         2.16738         1.63070
C          3.71056         3.65972         1.16285
C          5.12234         1.55608         1.70625
C          4.97296         4.36295         0.90707
C          3.70799         6.49087         0.85755
C          3.68071         7.87016         0.53222
C          4.94889         5.75446         0.75101
C          4.87101         8.56355         0.20431
C          3.61227        10.71905         0.04380
C          3.60558        12.12269        -0.15700
C          4.85459         9.97016        -0.03906
C          4.84782        12.79028        -0.69813
C          3.62778        15.03568        -0.64235
C          3.72216        16.44750        -0.11405
C          4.91504        14.27616        -0.44681
C          4.88999        17.12903        -0.24921
C          3.69571        19.25783         0.25235
C          4.95511        18.56460         0.01135
C          6.26210         2.21384         1.29594
C          6.23362         3.64067         0.92396
C          7.50178         1.50161         1.17901
C          7.41382         4.30635         0.69162
C          6.14588         6.46889         0.39011
C          6.11334         7.82374         0.14216
C          7.42508         5.70501         0.13143
C          7.32527         8.53656        -0.41876
C          6.09064        10.70409        -0.14575
C          6.10487        12.06526        -0.31333
C          7.40195         9.97919         0.10173
C          7.39488        12.81674        -0.07088
C          6.11221        14.95143        -0.51584
C          6.09376        16.43868        -0.85420
C          7.36911        14.25968        -0.50724
C          7.39153        17.13045        -0.52939
C          6.14929        19.23375        -0.06915
C          7.40232        18.53307        -0.26908
C          8.70060         2.15247         0.90273
C          8.72939         3.65600         1.04627
C          9.90742         1.45996         0.68940
C          9.92810         4.31477         0.40765
C          8.66072         6.51326         0.56532
C          8.65048         7.85936        -0.13574
C          9.92556         5.72517         0.26574
C          9.79504         8.51588        -0.42157
C          8.57921        10.70227        -0.52758
C          8.57850        12.04722        -0.60353
C          9.75236         9.89129        -1.06363
C          9.73121        12.78798        -1.23797
C          8.57775        14.95384        -0.66941
C          8.59298        16.40917        -0.58203
C          9.81396        14.24761        -0.82039
C          9.83939        17.08756        -0.45369
C          8.62014        19.20990        -0.17377
C          9.85599        18.51505        -0.28773
C         11.11301         2.13358         0.37197
C         11.10235         3.57670         0.17913
C         12.32233         1.43405         0.23831
C         12.30172         4.24032        -0.22907
C         11.09536         6.39618        -0.07996
C         11.10690         7.90059         0.00955
C         12.29554         5.67335        -0.35152
C         12.32441         8.53615        -0.59177
C         11.05226        10.67295        -0.94108
C         11.02882        12.03632        -1.04978
C         12.31537         9.94991        -0.83788
C         12.26477        12.81631        -1.24550
C         11.03866        14.93174        -0.74194
C         11.06800        16.36231        -0.50794
C         12.29182        14.24928        -0.91824
C         12.29901        17.03995        -0.38628
C         11.08722        19.19043        -0.19887
C         12.32140        18.48357        -0.21450
C         13.53080         2.09412        -0.09824
C         13.51212         3.50615        -0.38553
C         14.75983         1.40244        -0.11877
C         14.72009         4.14837        -0.79875
C         13.47523         6.35898        -0.72991
C         13.51124         7.78807        -0.78940
C         14.65310         5.58601        -1.14933
C         14.76895         8.47698        -0.93334
C         13.52779        10.62562        -0.92098
C         13.58439        12.05261        -1.20960
C         14.78444         9.91860        -0.48795
C         14.81096        12.79541        -0.90896
C         13.52096        14.91326        -0.78081
C         13.54303        16.32542        -0.48033
C         14.77873        14.19018        -0.81752
C         14.76750        16.99262        -0.29845
C         13.53312        19.15346        -0.04299
C         14.80051        18.40613         0.22657
C         15.97181         2.06309        -0.40222
C         15.93372         3.44902        -0.80242
C         17.21144         1.37320        -0.30139
C         17.21296         4.09139        -1.15502
C         15.95180         6.34932        -1.41186
C         15.97524         7.79641        -1.11384
C         17.24949         5.60714        -1.41111
C         17.23535         8.45140        -0.96342
C         16.03536        10.66812        -0.84352
C         16.04309        12.05066        -0.85800
C         17.29533         9.93580        -1.21086
C         17.30145        12.77752        -0.82693
C         16.01851        14.90523        -0.68376
C         16.00305        16.30583        -0.46410
C         17.26267        14.19648        -0.73385
C         17.24108        17.03655        -0.46352
C         16.04220        19.15568        -0.16835
C         17.22838        18.50154        -0.41389
C         18.45573         2.01787        -0.43586
C         18.47803         3.44118        -0.74688
C         19.67132         1.32167        -0.24107
C         19.66153         4.14644        -0.77411
C         18.47534         6.33283        -1.06143
C         18.43032         7.72190        -0.84175
C         19.71671         5.59689        -0.91761
C         19.69183         8.40423        -0.33601
C         18.54856        10.62365        -0.71866
C         18.52672        12.08295        -0.69654
C         19.68096         9.91785        -0.44455
C         19.72084        12.81231        -0.46430
C         18.48548        14.91826        -0.62989
C         18.44040        16.35081        -0.59007
C         19.70971        14.20674        -0.48517
C         19.69007        17.09280        -0.82570
C         18.47357        19.21639        -0.55065
C         19.69612        18.56435        -0.69344
C         20.92554         1.96128        -0.36145
C         20.93742         3.40644        -0.69466
C         22.14365         1.29142        -0.24024
C         22.20655         4.16918        -0.53550
C         20.91306         6.29385        -0.82677
C         20.90315         7.78437        -1.06836
C         22.17262         5.66135        -0.29209
C         22.22435         8.45119        -0.77005
C         20.96270        10.60564        -0.11746
C         20.97695        12.13019         0.03736
C         22.24631         9.88213        -0.41508
C         22.24666        12.81437        -0.45802
C         20.97345        14.95472        -0.13005
C         20.97992        16.34592        -0.71873
C         22.24774        14.20606        -0.47987
C         22.23059        17.10736        -0.59842
C         20.95301        19.22578        -0.63605
C         22.18333        18.53593        -0.59319
C         23.41038         1.97108        -0.32460
C         23.42807         3.45970        -0.00455
C         24.57958         1.29408        -0.53855
C         24.67657         4.19355        -0.42824
C         23.45695         6.32267        -0.76655
C         23.42348         7.73681        -0.86184
C         24.68692         5.56618        -0.71939
C         24.68227         8.49764        -1.06117
C         23.49751        10.65383        -0.58971
C         23.48553        12.07960        -0.61903
C         24.70227         9.95870        -0.78970
C         24.70864        12.77971        -0.76665
C         23.44152        14.96561        -0.66818
C         23.43228        16.37473        -0.62369
C         24.72752        14.26435        -1.04905
C         24.71809        17.13321        -0.83150
C         23.42362        19.23181        -0.37052
C         24.63081        18.56135        -0.33471
C         25.84823         2.01849        -0.89265
C         25.94042         3.40896        -0.22154
C         27.12937         1.23637        -0.64523
C         27.16261         4.13006        -0.73695
C         25.96442         6.26047        -0.84751
C         25.98568         7.71805        -1.04558
C         27.20076         5.59003        -0.77335
C         27.21255         8.45361        -0.72440
C         25.92998        10.65959        -0.80688
C         25.93676        12.07910        -0.71084
C         27.19886         9.91442        -0.84515
C         27.15820        12.79766        -0.36787
C         25.95679        14.96437        -0.49735
C         25.94019        16.37477        -0.35969
C         27.12649        14.22658        -0.20254
C         27.07527        17.09085         0.04031
C         25.82892        19.20622         0.08950
C         27.00915        18.49984         0.25905
C         28.29856         1.90894        -0.84661
C         28.17710         3.32927        -1.18062
C         29.63792         1.35518        -0.63886
C         29.95651         4.36750        -0.73584
C         28.42709         6.33177        -0.57072
C         28.38154         7.76179        -0.39595
C         29.68116         5.68182        -0.29093
C         29.51779         8.46159         0.19352
C         28.45602        10.66665        -0.32260
C         28.30986        12.08945         0.01102
C         29.50005         9.87208         0.33502
C         29.39434        12.74081         0.67669
C         28.31239        14.89763         0.25861
C         28.41630        16.40478         0.17565
C         29.39207        14.17629         0.74129
C         29.23048        16.98141         1.31911
C         28.24777        19.20287         0.74699
C         29.05857        18.33050         1.67362
C         30.76394         2.05347        -0.31338
C         30.85055         3.49688        -0.09611
C         31.75566         4.09865         0.81230
C         30.67132         6.29065         0.54038
C         30.57861         7.71235         0.78548
C         31.70804         5.46908         1.05351
C         31.54535         8.39687         1.56179
C         30.47810        10.54780         1.12168
C         30.45407        11.98506         1.23937
C         31.49062         9.76407         1.73815
C         31.49085        12.69308         1.95995
C         30.62383        14.91772         1.21923
C         30.23075        16.20806         1.93367
C         31.56386        14.04188         1.99355
C         30.93680        16.75005         3.01765
C         29.77580        18.86074         2.75433
C         30.67454        18.05165         3.45306
O         29.26071         3.90173        -1.86015
O         12.96458        12.46299        -2.48959
O         21.82338         3.74292        -1.85964
O         15.08591         5.96268        -2.51093
O         21.68918        10.00328         1.02465
O         17.33838         4.65450        -2.50624
O          3.42013         2.55444         0.26032
O         20.36944        16.53897        -2.02989
O         28.23470        10.41144        -1.74248
O         25.34516         8.16148        -2.31980
O          8.57680         6.75527         1.98271
H          9.28739         7.39796         2.20727
O         20.97491        15.14476         1.31486
H         20.95175        14.23756         1.71308
O         26.09150         3.18106         1.22759
H         26.41054         4.01933         1.62422
O         14.86311        18.27815         1.71660
H         14.08999        17.73904         1.99020
O          7.56223        12.83612         1.40455
H          6.81856        13.35772         1.77591
O          7.12087         8.60769        -1.85060
H          7.35369         7.72805        -2.22105
O         14.75363         9.89390         0.99721
H         13.87085         9.55142         1.25725
O          7.55589         5.57911        -1.32714
H          6.82805         5.00308        -1.64458
O         22.11354         5.88775         1.15498
H         22.60379         5.14355         1.58931
O          9.55115         9.71582        -2.49243
H          9.41554        10.61440        -2.87428
O         19.76657         8.07521         1.06633
H         20.56436         8.53317         1.42863
O         17.37984        10.04607        -2.68184
H         16.61792         9.56131        -3.06597
O          3.47599        15.15722        -2.11372
H          3.69795        14.26472        -2.48193
O          1.82437         8.15167        -0.93967
H          1.77665         7.17143        -0.95112
O          5.94477        16.49805        -2.30505
H          5.06556        16.08620        -2.50973
O          9.47416        12.76659        -2.68476
H         10.25253        13.16680        -3.12952
O         23.37990         3.52835         1.46592
H         24.26973         3.21640         1.77208
O         24.81913        14.38368        -2.51036
H         24.81057        15.35309        -2.71668
O          2.67752        16.79635         2.01165
H          3.45773        17.30069         2.32657
O         25.78234         2.29258        -2.32394
H         25.52966         1.46581        -2.78444
O         11.19696         8.19224         1.47225
H         11.95900         7.68236         1.82260
O          4.72305        12.67737        -2.18136
H          4.77035        11.72155        -2.40387
O         31.36111        15.35454         0.03427
H         30.71328        15.81974        -0.55729
O          8.89328         3.88417         2.49410
H          9.71968         3.43155         2.76567
O         29.08028        19.47783        -0.41170
H         29.93198        19.84118        -0.09050
O         20.95786        12.38854         1.48554
H         21.43836        11.63096         1.90119
O         24.88339        17.21914        -2.29959
H         25.71034        17.71922        -2.47113
O         29.16722        16.71308        -1.05492
H         29.23026        17.70251        -1.09700
O          7.62153         9.93251         1.53009
H          7.69542        10.86961         1.83284
O         20.65356         8.01804        -2.48668
H         21.33062         7.53291        -3.00427
H          0.69100         1.98813         3.13631
H          0.49703         4.28521         2.32462
H          2.83224         0.74924         3.01947
H          0.64108         6.26017         2.40396
H          0.50008         8.59699         1.72176
H          0.26170        10.28671         0.66980
H          0.26755        12.72176         0.43917
H          0.22073        14.59291        -0.17091
H          0.30992        17.01074         0.21768
H          1.60202        19.12503         0.61791
H          5.19784         0.51925         2.06891
H          3.70531        20.35866         0.24758
H          7.48243         0.40311         1.24916
H          6.17909        20.32331         0.08329
H          9.91121         0.36033         0.74106
H          8.62946        20.29582         0.00224
H         12.33981         0.34939         0.42195
H         11.09807        20.28215        -0.06398
H         14.77820         0.33281         0.13826
H         13.52813        20.24527         0.09805
H         17.19385         0.30259        -0.04850
H         16.02020        20.25547        -0.12694
H         19.63689         0.25181         0.01377
H         18.45549        20.31279        -0.45076
H         22.14471         0.19311        -0.15941
H         20.96489        20.32416        -0.56272
H         24.55100         0.20192        -0.69107
H         23.39265        20.30667        -0.13316
H         27.10643         0.17547        -0.35404
H         25.79353        20.27605         0.34664
H         29.71052         0.25600        -0.65743
H         27.98139        20.17740         1.24168
H         31.66880         1.47126        -0.07460
H         32.51827         3.48301         1.31007
H         32.47225         5.90852         1.70851
H         32.36008         7.83495         2.03768
H         32.26136        10.24177         2.35613
H         32.25815        12.11516         2.49329
H         32.40801        14.52016         2.51086
H         31.70964        16.15992         3.52928
H         29.63297        19.91223         3.04418
H         31.22423        18.46086         4.31204
