         600
 CSIRO Nanostructure Databank - Neutral Graphene Oxide Data Set
C         22.99834        27.40812        -0.61883
C         22.99494        28.77415        -0.55951
C         22.97645        31.67921        -0.37802
C         22.96204        33.04548        -0.34744
C         22.93901        35.98584        -0.35276
C         22.91045        37.32826        -0.10892
C         22.96284        40.26868         0.43001
C         22.96828        41.65894         0.49160
C         22.96131        44.59972         0.60486
C         22.92380        45.95815         0.62616
C         25.38928        24.55403        -0.39088
C         24.20761        25.26535        -0.54020
C         25.44149        27.37105        -0.26138
C         24.21576        26.67315        -0.47236
C         25.44028        28.80204        -0.24265
C         24.20741        29.51384        -0.37622
C         25.43053        31.66254        -0.23197
C         24.20083        30.94024        -0.33507
C         25.42733        33.08374        -0.24693
C         24.17672        33.80758        -0.31996
C         25.43272        35.98290        -0.47866
C         24.15066        35.21243        -0.32076
C         25.41329        37.31384         0.24127
C         24.11173        38.04938         0.36346
C         25.40510        40.20687         0.56161
C         24.15253        39.52980         0.45001
C         25.41412        41.65551         0.62100
C         24.17589        42.38101         0.56073
C         25.41575        44.49987         0.48121
C         24.19211        43.82886         0.58279
C         25.45313        45.96728         0.60495
C         24.15199        46.75290         0.73265
C         25.39816        48.83211         0.22520
C         24.20342        48.17878         0.38346
C         27.93272        23.01565        -0.37648
C         27.83179        24.40671         0.08341
C         26.60794        25.21074        -0.14804
C         27.89499        27.34507         0.11012
C         26.65705        26.63355        -0.07993
C         27.90020        28.79028         0.08801
C         26.66859        29.51514        -0.09251
C         27.89605        31.65636         0.02667
C         26.67029        30.94052        -0.10472
C         27.90058        33.08176         0.02122
C         26.66758        33.79876        -0.13232
C         27.88951        35.94035        -0.02847
C         26.68437        35.21187        -0.15344
C         27.87648        37.38333         0.02681
C         26.67690        38.08418         0.20282
C         27.90701        40.14444         0.76320
C         26.63194        39.47689         0.47708
C         27.90704        41.69712         0.88427
C         26.63518        42.38003         0.64011
C         27.91131        44.48031         0.35956
C         26.66206        43.78755         0.44539
C         27.93112        45.89840        -0.01901
C         26.62347        46.69313         0.05679
C         27.90643        48.81360        -0.06752
C         26.65844        48.15544         0.12606
C         27.97483        50.22357        -0.21075
C         30.39045        23.04566        -0.21479
C         29.12733        22.36990        -0.40993
C         30.40600        24.44040        -0.05198
C         29.15240        25.16050         0.22980
C         30.36201        27.30802         0.20365
C         29.13323        26.63580         0.17089
C         30.36328        28.75264         0.63031
C         29.10827        29.50434         0.23855
C         30.34623        31.65522         0.29213
C         29.13059        30.92919         0.18919
C         30.36877        33.07533         0.26345
C         29.12367        33.81194         0.14561
C         30.36151        35.97172         0.25862
C         29.12716        35.22781         0.11210
C         30.39101        37.34984         0.18880
C         29.16085        38.13613        -0.19714
C         30.36762        40.22274         0.50277
C         29.17197        39.51833         0.40987
C         30.38326        41.66847         0.62739
C         29.17594        42.39177         0.66682
C         30.39250        44.52952         0.40244
C         29.15607        43.80833         0.47958
C         30.39624        45.95366         0.24582
C         29.18005        46.66251         0.06151
C         30.40195        48.78452        -0.07906
C         29.15399        48.07373        -0.04582
C         30.41461        50.21053        -0.16923
C         29.18528        50.89298        -0.27211
C         32.88124        20.25346        -0.60059
C         31.68244        20.91856        -0.43256
C         32.86352        23.05678        -0.42293
C         31.63861        22.33223        -0.34893
C         32.85282        24.49355        -0.32075
C         31.62684        25.17624        -0.12419
C         32.81451        27.33592        -0.00827
C         31.59715        26.61214         0.04145
C         32.81166        28.78284         0.08041
C         31.63073        29.48230         0.30142
C         32.82078        31.68210         0.04403
C         31.64053        30.95147         0.61979
C         32.82812        33.07415         0.08291
C         31.60069        33.77254         0.32021
C         32.88055        35.95436         0.25032
C         31.61839        35.23374         0.66438
C         32.86846        37.38209         0.27276
C         31.63070        38.09294         0.30675
C         32.85265        40.23618         0.38163
C         31.62572        39.50947         0.36227
C         32.85425        41.66940         0.45741
C         31.62506        42.38462         0.53490
C         32.86741        44.53079         0.50276
C         31.62954        43.81613         0.49031
C         32.88193        45.96082         0.38978
C         31.63523        46.67220         0.20033
C         32.92264        48.76409        -0.32448
C         31.62814        48.06163        -0.00074
C         32.89881        50.24557        -0.03748
C         31.67870        50.93824        -0.07564
C         32.88006        53.05187         0.13500
C         31.69724        52.35786         0.03244
C         35.45454        18.87188        -0.30065
C         35.37367        20.20254        -1.02618
C         34.10102        20.96184        -0.70172
C         35.34213        23.12344        -0.97029
C         34.08883        22.35444        -0.61898
C         35.32714        24.54533        -0.47205
C         34.09357        25.21858        -0.30720
C         35.26809        27.37817        -0.05940
C         34.05952        26.65116        -0.13352
C         35.28358        28.80442        -0.11975
C         34.05712        29.48223        -0.11047
C         35.29672        31.68347        -0.60790
C         33.99462        30.92384        -0.37705
C         35.25183        33.14048        -0.38127
C         34.07553        33.80883        -0.10397
C         35.31461        35.98640        -0.05776
C         34.07243        35.26108         0.02649
C         35.32366        37.40318         0.08900
C         34.09265        38.10944         0.20999
C         35.32804        40.24516         0.28399
C         34.08782        39.53281         0.28677
C         35.32918        41.66984         0.38530
C         34.09321        42.38349         0.45432
C         35.34885        44.50287         0.65992
C         34.10274        43.80742         0.54235
C         35.31783        45.97899         1.02142
C         34.09403        46.68342         0.48628
C         35.35256        48.79530         0.29236
C         34.14384        48.06815         0.22238
C         35.36745        50.22824         0.19604
C         34.12913        50.94911         0.10489
C         35.37107        53.08642         0.28450
C         34.13193        52.37642         0.17156
C         35.40610        54.53511         0.32112
C         37.84913        18.78655        -0.87346
C         36.61267        18.20850        -0.22604
C         37.86544        20.28559        -0.65509
C         36.64675        20.98689        -0.74203
C         37.82723        23.10354        -0.44211
C         36.62059        22.38595        -0.63576
C         37.80311        24.53579        -0.28496
C         36.55058        25.20573        -0.23320
C         37.82335        27.40301         0.15708
C         36.51098        26.62829         0.13148
C         37.78310        28.85343        -0.09030
C         36.55049        29.53447        -0.20444
C         37.78609        31.64539        -0.39353
C         36.56772        30.94560        -0.41225
C         37.81499        33.10735        -0.61272
C         36.50498        33.87969        -0.58329
C         37.78089        35.98453        -0.19315
C         36.54129        35.30860        -0.26060
C         37.78876        37.40021        -0.01312
C         36.56064        38.11273         0.08181
C         37.79731        40.25177         0.21143
C         36.55824        39.53823         0.19835
C         37.80262        41.66941         0.32735
C         36.56410        42.37743         0.42825
C         37.84752        44.47768         0.84086
C         36.54938        43.79557         0.61872
C         37.85944        46.01247         0.89623
C         36.59501        46.71702         0.70132
C         37.85135        48.81643         0.41710
C         36.60187        48.08543         0.46847
C         37.84150        50.23429         0.35676
C         36.59198        50.94171         0.29786
C         37.83991        53.07661         0.50178
C         36.59138        52.37282         0.35308
C         37.86001        54.56387         0.80872
C         36.54295        55.22938         0.53120
C         40.33941        16.00563        -0.13488
C         39.16054        16.68923        -0.40925
C         40.32529        18.82832        -0.28763
C         39.13062        18.09299        -0.46921
C         40.32840        20.26958        -0.34125
C         39.08149        20.98070        -0.46985
C         40.30337        23.12413        -0.29967
C         39.06925        22.40434        -0.38338
C         40.29043        24.54717        -0.25440
C         39.04285        25.25404        -0.18975
C         40.27868        27.39534        -0.18331
C         39.06487        26.66879        -0.10879
C         40.26822        28.82591        -0.15566
C         39.02133        29.54161        -0.17333
C         40.26203        31.68489        -0.20271
C         39.02117        30.96254        -0.25374
C         40.26185        33.11620        -0.17076
C         39.05106        33.84559        -0.30672
C         40.26026        35.96386        -0.02756
C         39.02885        35.25391        -0.21116
C         40.25974        37.38835         0.06376
C         39.03009        38.10800         0.05811
C         40.26784        40.24047         0.13110
C         39.02815        39.52919         0.14636
C         40.25614        41.66451         0.11851
C         39.05599        42.37815         0.27182
C         40.30803        44.53065         0.41335
C         39.08816        43.80547         0.46433
C         40.31806        45.97694         0.49199
C         39.11701        46.70290         0.59615
C         40.32525        48.84238         0.35231
C         39.09340        48.12111         0.45220
C         40.31390        50.26209         0.34530
C         39.07383        50.95815         0.38143
C         40.33272        53.15851         0.68367
C         39.04248        52.39303         0.47122
C         40.26897        54.55929         0.10451
C         39.05174        55.23626         0.13030
C         40.10096        57.22136        -0.81020
C         38.97644        56.56961        -0.35309
C         42.77769        16.03185         0.31148
C         41.54697        16.71247         0.04934
C         42.77798        18.85520         0.08702
C         41.54878        18.13437        -0.04173
C         42.77831        20.27755        -0.03810
C         41.54012        20.98030        -0.22494
C         42.77481        23.12896        -0.25998
C         41.54666        22.41923        -0.26681
C         42.76861        24.56568        -0.30082
C         41.52227        25.26702        -0.25395
C         42.75107        27.41144        -0.24316
C         41.52231        26.69122        -0.24066
C         42.74129        28.83531        -0.18799
C         41.49583        29.54063        -0.16020
C         42.72661        31.68351        -0.04767
C         41.48798        30.97278        -0.13664
C         42.72368        33.10234         0.04358
C         41.49367        33.82184        -0.01186
C         42.71896        35.94555         0.27542
C         41.48631        35.24389         0.05584
C         42.71693        37.37204         0.31675
C         41.49986        38.09822         0.18382
C         42.74972        40.24423         0.23330
C         41.49753        39.52343         0.16572
C         42.77511        41.65610         0.11812
C         41.51786        42.39884        -0.23609
C         42.76059        44.53813         0.15668
C         41.53553        43.84559         0.18479
C         42.77499        45.97181         0.19811
C         41.55086        46.69092         0.31568
C         42.78992        48.81983         0.11654
C         41.55794        48.11441         0.28032
C         42.80368        50.24791         0.07345
C         41.56507        51.00113         0.24561
C         42.80486        53.15719         0.09567
C         41.55882        52.38568         0.26869
C         42.72307        54.56590        -0.37604
C         41.45179        55.21806        -0.35756
C         42.54021        57.24758        -1.22400
C         41.36336        56.57161        -0.80426
C         43.95314        16.72509         0.43494
C         45.22743        18.88211         0.39073
C         43.99820        18.15057         0.30514
C         45.20936        20.29146         0.30010
C         44.00077        20.99484         0.05364
C         45.25010        23.12301        -0.19295
C         44.02244        22.42606        -0.12936
C         45.25612        24.54742        -0.68134
C         43.98410        25.28959        -0.36418
C         45.23532        27.43184        -0.33277
C         43.99349        26.70025        -0.31633
C         45.22261        28.83981        -0.25086
C         43.97679        29.55276        -0.16796
C         45.19955        31.69528         0.00846
C         43.96379        30.96948        -0.05244
C         45.19930        33.09954         0.18563
C         43.95604        33.81355         0.22884
C         45.14862        35.90754         0.94746
C         43.92771        35.21291         0.41607
C         45.15658        37.38275         0.64965
C         43.96906        38.08106         0.46990
C         45.20223        40.23668         0.39412
C         43.95716        39.52720         0.40836
C         45.22190        41.66431         0.21047
C         43.99783        42.37291         0.14096
C         45.23095        44.51716         0.09104
C         44.00838        43.81803         0.09219
C         45.23885        45.95646         0.02698
C         44.00447        46.67394         0.06412
C         45.25210        48.79110        -0.19255
C         44.01659        48.10021         0.00501
C         45.24854        50.20824        -0.31553
C         44.02352        50.90973        -0.14341
C         45.20269        53.02589        -0.85694
C         44.06291        52.38127        -0.14379
C         45.14775        54.51390        -1.07721
C         43.86562        55.24533        -0.81827
C         43.75671        56.59978        -1.23068
C         47.69100        18.84012         0.38467
C         46.50018        18.19232         0.40966
C         47.77674        20.29929         0.53397
C         46.44854        21.06619         0.48120
C         47.72220        23.16525        -0.03399
C         46.48098        22.47948         0.06229
C         47.73762        24.59747        -0.22213
C         46.51290        25.30857        -0.34277
C         47.72961        27.44622        -0.34273
C         46.49496        26.71745        -0.34649
C         47.72170        28.87512        -0.39459
C         46.45866        29.58270        -0.28912
C         47.64880        31.76041        -0.41339
C         46.42724        30.97723        -0.16385
C         47.67933        33.17213         0.01658
C         46.45212        33.83220         0.28867
C         47.67074        35.90379         0.74675
C         46.44644        35.20763         0.62141
C         47.69782        37.35706         0.74254
C         46.41506        38.12059         1.00046
C         47.63362        40.20252         0.09877
C         46.40173        39.53429         0.50766
C         47.69475        41.67067         0.10985
C         46.46958        42.37143         0.14851
C         47.72036        44.47199         0.10579
C         46.47874        43.79691         0.10439
C         47.71845        45.93883         0.17291
C         46.45867        46.66437        -0.03814
C         47.71960        48.76097        -0.51370
C         46.48837        48.06942        -0.22224
C         47.67163        50.15689        -0.77085
C         46.48186        50.90114        -0.59725
C         47.67836        53.03741        -1.07245
C         46.49861        52.32011        -0.81956
C         47.61654        54.48638        -1.13608
C         46.45446        55.19025        -1.10006
C         50.22413        20.34867         0.04536
C         49.00413        21.03799         0.17781
C         50.20809        23.16201        -0.13181
C         48.97284        22.45139         0.03172
C         50.21498        24.59242        -0.21686
C         48.97154        25.30902        -0.24343
C         50.20382        27.45539        -0.40829
C         48.97080        26.73768        -0.34306
C         50.18868        28.87638        -0.47744
C         48.94960        29.57184        -0.49374
C         50.25811        31.82914        -0.66636
C         48.94499        31.03960        -0.68050
C         50.19616        33.14793         0.08434
C         48.91790        33.82626         0.22903
C         50.14575        35.84398         0.96089
C         48.88992        35.17972         0.64069
C         50.16255        37.39502         0.86662
C         48.88311        38.03397         0.55701
C         50.18920        40.15859        -0.09475
C         48.89544        39.41646         0.03489
C         50.18752        41.62317         0.02507
C         48.94240        42.34267         0.07273
C         50.20922        44.46570        -0.08150
C         48.95125        43.77239         0.07515
C         50.23936        45.86644        -0.29895
C         49.02839        46.66874        -0.07104
C         50.17903        48.66099        -0.93654
C         48.97342        48.05678        -0.55968
C         50.18268        50.06723        -1.38067
C         48.86026        50.85362        -1.28812
C         50.16275        52.93695        -1.41456
C         48.92292        52.32465        -1.23308
C         51.41254        21.03036        -0.14059
C         52.68722        23.15785        -0.30025
C         51.43938        22.44378        -0.19508
C         52.68814        24.58030        -0.31603
C         51.44702        25.29793        -0.28948
C         52.68464        27.41481        -0.43809
C         51.45941        26.73151        -0.37942
C         52.71369        28.88409        -0.75233
C         51.43370        29.61773        -0.45168
C         52.69846        31.70206        -0.07305
C         51.46600        30.99472        -0.31317
C         52.68135        33.08491         0.26012
C         51.40001        33.77989         0.38407
C         52.60507        35.89742         0.92887
C         51.42537        35.17135         0.77452
C         52.63370        37.33585         0.84753
C         51.44528        38.02731         0.60566
C         52.71150        40.19340         0.36697
C         51.48770        39.41966         0.13750
C         52.67884        41.58087         0.17021
C         51.42081        42.29589         0.03091
C         52.66297        44.40415        -0.30630
C         51.42960        43.72646        -0.09213
C         52.64180        45.76522        -0.68889
C         51.43635        46.51671        -0.68114
C         52.62767        48.65183        -1.18587
C         51.42427        47.94726        -0.94641
C         52.67239        50.08056        -1.23001
C         51.44018        50.82804        -1.33132
C         51.37613        52.21696        -1.44266
C         55.12487        23.15581        -0.42342
C         53.93031        22.47390        -0.36946
C         55.16506        24.57624        -0.40537
C         53.93003        25.28736        -0.36132
C         55.16248        27.42880        -0.33667
C         53.92643        26.71829        -0.38355
C         55.16756        28.86982        -0.21341
C         53.95702        29.58444        -0.26870
C         55.15548        31.68228         0.21528
C         53.93874        30.98555        -0.04358
C         55.13032        33.08635         0.49776
C         53.88340        33.76161         0.56318
C         55.13529        35.93077         1.01033
C         53.86812        35.13693         1.19379
C         55.12397        37.36097         1.04748
C         53.89628        38.06284         0.85352
C         55.15744        40.18923         0.67877
C         53.92110        39.47843         0.66276
C         55.15632        41.60424         0.33711
C         53.92167        42.30528         0.13267
C         55.15132        44.37771        -0.38246
C         53.91610        43.68680        -0.19275
C         55.16331        45.73439        -0.82177
C         53.88974        46.38652        -1.14149
C         55.17264        48.60985        -1.29998
C         53.88605        47.91239        -1.39153
C         55.13639        50.01514        -1.20265
C         53.93803        50.72132        -1.22040
C         57.66714        24.62232        -0.46790
C         56.41049        25.29558        -0.41031
C         57.63403        27.43718        -0.21342
C         56.39638        26.71964        -0.32336
C         57.63997        28.85456        -0.02859
C         56.39766        29.56813        -0.00660
C         57.61972        31.67737         0.43068
C         56.39084        30.97479         0.20217
C         57.59351        33.08263         0.71229
C         56.35174        33.78948         0.74640
C         57.56902        35.90937         1.24561
C         56.34307        35.21474         0.96023
C         57.52900        37.30270         1.56310
C         56.34532        38.09573         1.25354
C         57.57577        40.32748         1.11207
C         56.36367        39.51310         1.05380
C         57.66733        41.52439         0.19058
C         56.37044        42.30312         0.15582
C         57.62401        44.36615        -0.45152
C         56.38424        43.67024        -0.21676
C         57.61574        45.73322        -0.84109
C         56.37362        46.43375        -1.02515
C         57.64269        48.49070        -1.49677
C         56.38741        47.85014        -1.30306
C         58.85365        25.31266        -0.40576
C         60.08468        27.44755        -0.12785
C         58.86555        26.73050        -0.25259
C         60.08413        28.81275         0.06595
C         58.86975        29.54865         0.13450
C         60.05110        31.70231         0.60898
C         58.85677        30.97572         0.38610
C         60.02637        33.05280         0.91122
C         58.81121        33.76814         0.99106
C         59.91816        35.79264         1.92624
C         58.78270        35.17028         1.36892
C         59.83289        37.08840         2.42381
C         58.65006        37.81522         2.25517
C         59.84884        40.82355         1.96464
C         58.64505        40.06903         1.94857
C         59.95398        41.97046         1.19332
C         58.86742        42.41667         0.41977
C         60.08559        44.44163        -0.36365
C         58.87177        43.72043        -0.16130
C         60.07723        45.74288        -0.80986
C         58.84948        46.42897        -1.02334
C         58.83213        47.80106        -1.38701
O         50.95945        39.63570        -1.23247
O         25.00137        46.43947         1.90549
O         27.10608        46.16729        -1.21833
O         50.11344        36.68308         2.14935
O         44.91630        53.55951        -2.19408
O         37.17323        26.97091         1.40630
O         48.11760        31.49871        -1.80957
O         47.13608        20.80682         1.75205
O         58.55970        39.04789         2.91419
O         28.43039        24.63535         1.40062
O         37.90272        45.19315         2.13559
O         27.90982        40.82765         2.05761
O         48.10685        39.57164        -1.20013
O         48.49830        46.49330         1.29570
O         43.80205        52.96818         1.18432
O         53.82022        46.94284        -2.49339
O         34.48483        31.24430        -1.74120
O         37.16871        33.53760        -1.85934
O         24.74239        37.35339         1.52563
O         49.35471        50.30601        -2.56096
O         52.80042        28.94202        -2.23611
H         52.68336        29.88211        -2.49565
O         29.25948        38.35304        -1.65825
H         29.18106        37.47464        -2.08791
O         46.39703        38.22638         2.48688
H         46.11508        37.33481         2.81719
O         57.83576        40.97792        -1.17595
H         57.86870        41.74102        -1.79184
O         38.07425        54.70985         2.24553
H         38.95215        54.29861         2.45436
O         45.04255        35.81125         2.44380
H         44.13124        36.08998         2.68147
O         37.70701        18.56697        -2.32706
H         38.51210        18.92683        -2.75673
O         50.53422        32.21731        -2.05228
H         49.65363        32.28673        -2.49570
O         35.21452        46.01450         2.49053
H         36.07399        45.66281         2.82858
O         33.05795        48.65680        -1.79812
H         32.26574        49.08110        -2.19227
O         31.78037        31.03889         2.10842
H         31.68680        31.98802         2.34761
O         31.62936        35.26735         2.14844
H         31.55859        36.20898         2.41670
O         40.48025        53.35125         2.14417
H         40.69390        52.47945         2.54049
O         35.33362        19.96626        -2.46427
H         36.11211        19.38681        -2.67407
O         25.52359        36.33384        -1.90893
H         25.53135        35.49627        -2.41884
O         41.51844        42.44579        -1.72600
H         40.69731        42.90726        -2.00075
O         35.33246        23.20544        -2.44217
H         35.27596        22.27980        -2.77457
O         53.84314        34.86484         2.65555
H         52.95370        34.51025         2.87122
O         30.32704        28.69496         2.11149
H         30.73582        29.53393         2.44282
O         45.27497        24.43885        -2.16286
H         45.29009        25.35292        -2.51969
H         22.06127        26.85523        -0.77691
H         22.04081        29.30375        -0.67465
H         22.01661        31.14873        -0.41653
H         21.99570        33.56585        -0.36542
H         21.98838        35.48263        -0.58309
H         21.95445        37.86429        -0.18967
H         21.99617        39.75079         0.37096
H         22.00465        42.18311         0.46743
H         22.00509        44.06184         0.55156
H         21.96263        46.48500         0.53057
H         25.35684        23.45714        -0.42957
H         23.25837        24.73566        -0.70228
H         25.37462        49.92198         0.08245
H         23.25872        48.73695         0.30968
H         27.02739        22.48320        -0.69968
H         27.04938        50.81090        -0.27342
H         29.13855        21.31607        -0.71988
H         29.16727        51.98499        -0.38248
H         32.87392        19.15922        -0.69609
H         30.75722        20.33115        -0.36866
H         32.83977        54.14632         0.20516
H         30.75668        52.92345         0.03155
H         34.55440        18.45330         0.17321
H         34.46931        55.09267         0.18464
H         36.67660        17.24736         0.30549
H         36.48784        56.32383         0.61791
H         40.34132        14.90769        -0.08061
H         38.23789        16.11999        -0.58943
H         40.03352        58.25889        -1.16790
H         38.01580        57.10144        -0.35199
H         42.76803        14.93662         0.40878
H         42.46677        58.29172        -1.56033
H         44.87525        16.16668         0.64322
H         44.65115        57.12880        -1.58771
H         48.61159        18.25541         0.25073
H         46.50588        17.09701         0.32925
H         48.56274        55.04425        -1.17661
H         46.48946        56.28856        -1.05541
H         50.25206        19.25471         0.13219
H         50.22657        54.03287        -1.46233
H         52.34153        20.45080        -0.20731
H         52.30569        52.80065        -1.49679
H         56.05666        22.57741        -0.46957
H         53.95782        21.37679        -0.37611
H         56.07488        50.58269        -1.13594
H         53.98390        51.81844        -1.20002
H         57.69845        23.52907        -0.56447
H         57.66916        49.55772        -1.75650
H         59.81076        24.77336        -0.45185
H         61.03565        26.89738        -0.17273
H         61.04707        29.32989         0.17020
H         61.02410        31.19632         0.55977
H         60.98102        33.56784         1.08182
H         60.85319        35.23321         2.05819
H         60.67451        37.53950         2.96469
H         60.65477        40.52780         2.64798
H         60.85540        42.59261         1.28354
H         61.04745        43.93991        -0.19071
H         61.02354        46.27688        -0.97795
H         59.78698        48.32135        -1.54982
