         276
 CSIRO Nanostructure Databank - Neutral Graphene Oxide Data Set
C        -10.93902         0.42011         0.83233
C         -9.73477         1.31579         0.57413
C         -8.97133         0.89843        -0.72131
C         -7.60304         1.60894        -0.62557
C         -6.32772         0.82486        -0.69629
C         -5.06462         1.37128        -0.03533
C         -3.81376         0.78510        -0.68133
C         -2.54009         1.50596        -0.46916
C         -1.30297         0.74285        -0.68878
C         -0.01679         1.46976        -0.37283
C          1.13570         0.60835         0.02458
C          2.36398         1.27479         0.52166
C          3.48530         0.32724         0.78333
C          5.07153         1.50525        -0.63281
C          6.23584         0.80349         0.06205
C          7.49687         1.49150        -0.45929
C          8.76032         0.76167        -0.15007
C         10.05809         1.39578        -0.59221
C         11.23665         0.70053         0.05739
C         -9.96481         2.82493         0.52210
C         -8.88243         3.65322         0.26433
C         -7.58252         2.97875        -0.03080
C         -6.32167         3.61605         0.47780
C         -5.03430         2.88589         0.23982
C         -3.82723         3.65279        -0.33001
C         -2.51318         2.86911        -0.28259
C         -1.25764         3.56201        -0.06708
C         -0.09630         2.84092         0.13736
C          1.09477         3.42355         0.87417
C          2.42565         2.81466         0.15856
C          3.82606         3.57668         0.11498
C          4.96324         2.96840        -0.33100
C          6.20451         3.58627        -1.08286
C          7.50583         2.84626        -0.68984
C          8.79174         3.55865        -0.62879
C          9.97016         2.89611        -0.46210
C         -8.84414         5.08026         0.10844
C         -7.61870         5.82171         0.13232
C         -6.40162         5.12682         0.77927
C         -5.02142         5.78901         0.58388
C         -3.75666         5.04556         0.30875
C         -2.50444         5.83485         0.03179
C         -1.22694         5.04841        -0.06476
C          0.02001         5.70593         0.41062
C          0.99693         4.91449         0.91083
C          2.89733         5.99363         0.66380
C          3.82818         5.07139        -0.03505
C          4.99703         5.79895        -0.63305
C          6.30322         5.16467        -1.10174
C          7.52540         5.78356        -0.43655
C          8.83458         5.07655        -0.72469
C         -7.48680         7.19451        -0.02002
C         -6.31144         7.97270         0.57362
C         -4.97953         7.25205         0.20604
C         -3.72424         7.97569         0.71558
C         -2.40127         7.19197         0.75402
C         -1.16799         7.99564         0.33489
C          0.10759         7.20423         0.33526
C          1.38583         7.92659         0.69004
C          2.65813         7.26646         0.27364
C          3.72641         8.04151        -0.46572
C          5.01320         7.24774        -0.20976
C          6.30668         7.90454         0.10649
C          7.53680         7.07710        -0.03622
C         -6.18249         9.40128         0.07170
C         -5.00461        10.05636         0.05097
C         -3.72697         9.46388         0.55931
C         -2.42798        10.25489         0.35386
C         -1.13025         9.47637         0.55643
C          0.06107        10.12419         0.63360
C          1.37070         9.41481         0.75623
C          2.68713        10.09756         0.54280
C          3.80314         9.45498         0.09614
C          5.12677        10.08410         0.09344
C          6.29170         9.38931         0.07170
C        -10.96028        -0.90507         0.57538
C         -9.87479        -1.56002        -0.21556
C         -8.88403        -0.63465        -0.83624
C         -7.59644        -1.42319        -1.01518
C         -6.32007        -0.65672        -0.84526
C         -5.08643        -1.48294        -0.44136
C         -3.82799        -0.70938        -0.81715
C         -2.58926        -1.47354        -0.52481
C         -1.29656        -0.74610        -0.48644
C         -0.03366        -1.51073        -0.67104
C          1.22775        -0.73216        -0.64142
C          2.56494        -1.41030        -0.75641
C          3.66706        -0.85727         0.10426
C          4.98823        -1.58129         0.26456
C          6.20290        -0.71285        -0.18098
C          7.49850        -1.45574        -0.26710
C          8.76018        -0.71905         0.03940
C         10.04031        -1.46920         0.19240
C         11.22672        -0.62335         0.34034
C         -9.22801        -2.95937         0.02614
C         -9.32395        -4.03466        -0.99890
C         -7.63924        -2.55458         0.02863
C         -6.47608        -3.53352        -0.24770
C         -5.18700        -2.97668        -0.91632
C         -3.90629        -3.68077        -0.43790
C         -2.63707        -2.94795        -0.77677
C         -1.32149        -3.63582        -0.76258
C         -0.04465        -2.87080        -0.67211
C          1.21572        -3.64661        -0.84278
C          2.51878        -2.91038        -0.96200
C          3.82149        -3.65695        -0.85050
C          5.05251        -2.92484        -0.45223
C          6.28319        -3.70055        -0.14794
C          7.54417        -2.95512        -0.20796
C          8.83688        -3.66654         0.16761
C         10.03716        -2.81510         0.42344
C         -9.01907        -5.39200        -0.64449
C         -7.93407        -6.05609        -1.22511
C         -6.37016        -4.69462         0.45925
C         -5.15089        -5.58073         0.49245
C         -3.85608        -4.90289         0.15302
C         -2.49236        -5.56000         0.45620
C         -1.34237        -5.09844        -0.44394
C         -0.04647        -5.82684        -0.34291
C          1.24183        -5.01717        -0.17066
C          2.49734        -5.85142        -0.44557
C          3.79468        -5.16304        -0.75394
C          5.10934        -5.87480        -0.46778
C          6.30032        -5.06881        -0.05902
C          7.46892        -5.71085         0.52741
C          8.63824        -5.01967         0.72672
C         -7.44969        -7.39428        -0.81297
C         -6.26771        -7.86661        -0.29497
C         -5.16294        -7.10591         0.38777
C         -3.81895        -7.83783         0.59297
C         -2.51699        -7.08831         0.58429
C         -1.23696        -7.84731         0.41647
C         -0.04828        -7.22638         0.16291
C          1.22016        -8.03080        -0.12569
C          2.51238        -7.22991         0.22492
C          3.77488        -8.05851        -0.08755
C          5.11417        -7.35866        -0.24437
C          6.41691        -8.02823         0.27153
C          7.21286        -7.05980         1.17999
C         -6.00868        -9.28322        -0.58145
C         -4.86335        -9.93940        -0.31129
C         -3.83997        -9.37022         0.62978
C         -2.46285        -9.99077         0.55613
C         -1.28661        -9.30277         0.58490
C         -0.00312        -9.97106         0.81931
C          1.18494        -9.36185         0.59837
C          2.46908        -9.96315         1.12789
C          3.74554        -9.44532         0.47250
C          5.01770       -10.01275         0.99591
C          6.18055        -9.34677         0.97370
O         -9.94390        -1.24776        -1.65312
O         -1.99689        -1.11638         0.77042
O          8.69594         0.20778         1.21482
O          6.78018        -1.00779        -1.47141
O          8.42577        -3.53133        -1.23224
O         -0.50562         7.67447        -0.92363
O         -5.54603         3.06990         1.59380
O          3.62456        -9.21273        -0.96013
O          5.37237        -6.81645        -1.57228
O          1.20816        -8.30231        -1.53970
O         -5.36033        -6.43005         1.67612
O         -3.17876        -7.42295         1.85194
O          4.53623         1.07429        -1.65100
O          5.43483         7.35892         1.18831
O          2.03551        -0.64143        -1.86813
O          4.72293        -3.05954        -1.85681
O         -0.44543         1.24647        -1.74704
O         -3.83455         0.12227        -1.99299
O         -2.02957        -3.35452        -2.03432
O         -7.50977         2.76953        -1.50665
O         -6.16043         0.21183        -2.00686
O          1.40610         8.57364         1.99651
O          2.06814         5.45007         1.64183
O         -3.88775         8.83294         1.86999
O          2.99608        -5.82775        -1.79444
O         -4.16179         5.30921         1.67877
O          1.33002         0.72221         1.47171
O          3.87117         5.46302        -1.48422
O         -6.74150         5.32266         2.11984
O         -4.15169         3.86563        -1.67480
O          1.80899        -3.41240        -2.14002
O         -1.88966         5.64259        -1.24323
O         -7.52764        -1.98572         1.32717
H         -6.56364        -1.94604         1.57006
O          2.09923         2.86737        -1.23707
H          2.75806         2.35084        -1.75608
O          5.22900        -1.91680         1.65490
H          5.02878        -1.11593         2.19307
O          5.97755         3.24116        -2.46418
H          5.64463         2.31807        -2.54741
O         -7.58243        -1.95145        -2.37123
H         -7.39668        -1.16745        -2.94367
O         -2.42572        10.75232        -1.00016
H         -2.02474        10.07235        -1.58128
O         -4.34194        -9.73283         1.95185
H         -3.88520        -9.13749         2.58971
O          7.25814        -8.33483        -0.85252
H          6.90645        -7.82723        -1.62430
O          9.89498         5.59637         0.07662
H          9.67385         5.44785         1.01866
O          6.27197         1.15095         1.45895
H          7.15911         0.85990         1.79563
O         10.13892         1.10635        -2.02296
H         10.89694         1.60349        -2.39484
O         -5.03427         0.76211         1.29175
H         -5.39091         1.42971         1.93769
O         -2.11858         6.88919         2.13956
H         -2.93420         6.49167         2.52987
O         -8.79684         1.02786         1.65584
H         -9.11713         1.47411         2.46807
O          1.08433         3.07583         2.27107
H          0.75718         2.15365         2.38037
O         -9.65936         1.38037        -1.87040
H         -9.17118         2.18288        -2.17915
O         -2.09183        -5.06085         1.75638
H         -2.63054        -5.54206         2.42515
O          2.52911        -9.60649         2.53445
H          3.36859        -9.95375         2.90444
O         -5.17966        -3.12398        -2.33034
H         -5.92775        -2.59913        -2.70152
O         -9.39928        -3.72406        -2.26941
H         -9.53086        -2.72292        -2.36364
O          6.41802        -6.84593         2.35817
H          6.88252        -6.20691         2.93673
O         -7.33555        -5.03231         1.35111
H         -6.98400        -5.80015         1.87222
O         -0.84312        -5.84454        -1.58887
H          1.49535        -7.50124        -2.02992
O         -7.30088        -5.57225        -2.29295
H         -7.67235        -4.70393        -2.56976
O          1.27116        -4.65793         1.23732
H          1.52676        -5.46026         1.75823
O         -6.49446         7.98793         1.99631
H         -6.57198         7.03116         2.29559
O         -4.97284        -1.72231         0.99040
H         -4.66423        -0.88844         1.43245
O          3.46486         8.14958        -1.87402
H          3.34459         7.23496        -2.22015
O         -4.88372         7.24457        -1.23955
H         -4.94007         8.16899        -1.56332
O          4.10905         0.55551         1.96932
H          3.86531         1.43206         2.32874
O          2.52548        -6.97689         1.65472
H          2.46440        -7.84163         2.14382
O          6.47122         5.59908        -2.46766
H          5.84760         5.07321        -3.01918
H         12.14395        -1.10426         0.71498
H         12.16613         1.27509         0.19504
H         10.89864         3.48331        -0.37509
H          9.09210         5.32152        -1.79312
H          8.49983         7.52747         0.25692
H          7.25331         9.92401         0.07845
H          5.16324        11.18373         0.15200
H          2.77743        11.13850         0.89777
H          0.07569        11.22570         0.66704
H         -2.44161        11.15020         1.02781
H         -4.95896        11.08720        -0.33336
H         -7.09006         9.91389        -0.28669
H         -8.27027         7.75557        -0.55990
H         -9.78804         5.64126         0.20329
H        -10.97396         3.23444         0.67810
H        -11.79383         0.86158         1.37071
H        -11.83151        -1.51019         0.87337
H         -9.47879        -3.35899         1.02872
H         -9.31410        -5.71712         0.36239
H         -8.13156        -8.18510        -1.18192
H         -6.77842        -9.79262        -1.18217
H         -4.74132       -10.97797        -0.65194
H         -2.43707       -11.08604         0.66830
H         -0.03024       -10.96887         1.28529
H          2.43271       -11.08504         1.04820
H          4.96437       -11.00320         1.47783
H          7.07694        -9.82193         1.40192
H          8.19048        -7.53800         1.46517
H          9.44810        -5.47210         1.32025
H         10.98412        -3.32294         0.66615
