         630
 CSIRO Nanostructure Databank - Neutral Graphene Oxide Data Set
C         23.06738        27.86019        -1.27085
C         23.04112        29.10053        -0.66594
C         22.98949        31.40644         1.17392
C         23.00758        32.53568         2.01633
C         23.04104        36.29260         2.82834
C         22.99744        37.58370         2.36821
C         22.96061        40.30075         1.33113
C         22.95287        41.61764         0.97508
C         22.94013        44.44288         0.20344
C         22.94337        45.77550        -0.11275
C         25.46943        25.06665        -1.90721
C         24.30317        25.79085        -1.88166
C         25.46323        27.65871        -0.78710
C         24.26684        27.10299        -1.32189
C         25.42025        28.94473        -0.18320
C         24.21509        29.64874        -0.07986
C         25.41539        31.62307         0.92376
C         24.18314        30.91397         0.66660
C         25.41387        32.92994         1.53802
C         24.17708        33.25307         2.19061
C         25.40522        35.99759         2.13427
C         24.24701        35.52562         2.69936
C         25.49425        37.51581         2.20652
C         24.18921        38.23304         1.93434
C         25.42303        40.24942         1.19884
C         24.18521        39.56254         1.48220
C         25.42061        41.61867         0.84500
C         24.16665        42.34056         0.71301
C         25.42560        44.33787        -0.16266
C         24.15176        43.68968         0.33332
C         25.40733        45.84425        -0.11589
C         24.17726        46.51691        -0.23110
C         25.34623        48.63297        -0.46558
C         24.16322        47.92456        -0.39803
C         28.00205        23.54701        -2.00626
C         27.93879        24.86558        -1.49181
C         26.69767        25.60689        -1.40891
C         27.92613        27.53565        -0.45899
C         26.68814        26.90855        -0.85400
C         27.91743        28.88526         0.04278
C         26.63027        29.47162         0.53882
C         27.84829        31.68117         0.86341
C         26.64443        30.97870         0.67576
C         27.82681        33.08419         1.21401
C         26.60760        33.71880         1.58269
C         27.88721        35.93935         1.59819
C         26.69159        35.16145         2.15647
C         27.88157        37.36546         1.45217
C         26.68296        38.12731         1.53237
C         27.88947        40.21498         1.05032
C         26.66234        39.51426         1.25701
C         27.88549        41.63237         0.88068
C         26.65982        42.32686         0.70505
C         27.86372        44.46660         0.44685
C         26.68321        43.72817         0.39798
C         27.87275        45.89890         0.14618
C         26.62250        46.57172        -0.12595
C         27.84685        48.71325        -0.39128
C         26.59947        47.98301        -0.32315
C         27.88334        50.10092        -0.68374
C         30.42304        23.45724        -1.66600
C         29.20435        22.87183        -2.10173
C         30.39980        24.77025        -1.15707
C         29.16109        25.48678        -1.08617
C         30.43067        27.57502        -0.54527
C         29.13111        26.83694        -0.62489
C         30.35876        28.90797         0.14854
C         29.10536        29.59147         0.27745
C         30.30988        31.68187         0.80817
C         29.09373        30.97951         0.68925
C         30.30329        33.10489         1.03311
C         29.08012        33.79781         1.23981
C         30.32897        35.94250         1.17986
C         29.08671        35.23543         1.35834
C         30.34683        37.36635         1.13897
C         29.11061        38.07014         1.19059
C         30.34695        40.20503         0.96720
C         29.11232        39.48939         1.06725
C         30.32190        41.63170         0.96792
C         29.12247        42.35383         0.87711
C         30.30663        44.53108         0.78146
C         29.12098        43.80324         0.74812
C         30.30368        46.04132         0.77162
C         29.05407        46.63652         0.17840
C         30.31786        48.74380        -0.25351
C         29.07318        48.03499        -0.15370
C         30.32159        50.12527        -0.56656
C         29.07904        50.78318        -0.76264
C         33.01466        20.74480        -2.30924
C         31.80269        21.50248        -2.35583
C         32.79699        23.14765        -0.78969
C         31.67195        22.69862        -1.69508
C         32.84314        24.63318        -0.58282
C         31.64217        25.38861        -0.66674
C         32.80582        27.29303         0.37562
C         31.60463        26.70549        -0.19484
C         32.80067        28.84069         0.62792
C         31.53521        29.57030         0.44444
C         32.78661        31.66456         0.61024
C         31.55046        30.98251         0.65330
C         32.77095        33.07958         0.79256
C         31.54880        33.80041         1.01449
C         32.78898        35.95719         1.01996
C         31.55887        35.23298         1.07607
C         32.82262        37.36139         0.94942
C         31.58323        38.08131         0.99511
C         32.81717        40.22556         0.69865
C         31.58219        39.49904         0.92296
C         32.81217        41.61307         0.73156
C         31.59561        42.34481         1.10298
C         32.83403        44.58183         0.67743
C         31.58813        43.87053         1.04422
C         32.79192        45.93343         0.34501
C         31.58007        46.67866         0.26572
C         32.80140        48.75543        -0.35842
C         31.57443        48.03321        -0.10702
C         32.80775        50.10795        -0.65088
C         31.57777        50.84891        -0.71489
C         32.86470        52.92559        -1.01874
C         31.63316        52.22994        -0.90485
C         35.66777        19.50001        -2.81658
C         35.41581        20.39494        -1.63300
C         34.16562        21.24412        -1.73013
C         35.32018        23.14738        -0.67206
C         34.14252        22.54218        -1.12072
C         35.31414        24.53288        -0.25021
C         34.08030        25.25510        -0.25211
C         35.29598        27.31432         0.35020
C         34.09154        26.63121         0.14001
C         35.31458        28.77366         0.78007
C         34.04708        29.54225         0.50161
C         35.24038        31.68449         0.14425
C         34.03917        30.95289         0.39257
C         35.15830        33.09835         0.23573
C         33.99741        33.76556         0.70308
C         35.35422        35.94813         0.87209
C         34.04817        35.19796         1.03103
C         35.30143        37.39662         0.63081
C         34.07226        38.07927         0.73111
C         35.27467        40.16737         0.25996
C         34.06252        39.49338         0.52293
C         35.25453        41.62209         0.01384
C         33.97496        42.38194         0.28136
C         35.28732        44.47996         0.36896
C         34.06354        43.83957         0.50114
C         35.30992        45.96571         0.63132
C         34.08117        46.58351         0.00690
C         35.34846        48.79007        -0.04685
C         34.10068        48.04577        -0.29533
C         35.20889        50.29270         0.04843
C         34.14040        50.77210        -0.95565
C         35.34965        52.98386        -1.14313
C         34.08198        52.28055        -1.00884
C         35.40720        54.29303        -1.66262
C         37.99783        19.27633        -2.09804
C         36.87817        18.92669        -2.96164
C         37.91875        20.45709        -1.33135
C         36.66224        21.16779        -1.25694
C         37.73665        23.00094         0.06765
C         36.57583        22.42793        -0.70525
C         37.78423        24.50590         0.09190
C         36.53608        25.21194         0.03803
C         37.78945        27.32282         0.41038
C         36.53027        26.62319         0.25663
C         37.81011        28.73397         0.39666
C         36.52284        29.44939         0.17506
C         37.86675        31.55879        -0.05888
C         36.51357        30.91912        -0.12932
C         38.02222        32.89137        -0.42743
C         36.22531        33.95552        -0.21294
C         37.75196        35.89321         0.04408
C         36.47713        35.23083         0.23010
C         37.75333        37.31503         0.15887
C         36.51704        38.05509         0.30424
C         37.75686        40.16743        -0.05837
C         36.51322        39.47067         0.17186
C         37.73325        41.63642        -0.27645
C         36.51142        42.38265         0.02692
C         37.78098        44.50489         0.19841
C         36.52059        43.77024         0.12749
C         37.78355        45.96732         0.25792
C         36.58729        46.66755         0.24296
C         37.82470        48.80097         0.06177
C         36.56403        48.10824         0.11153
C         37.84413        50.27281        -0.00300
C         36.53744        51.03477        -0.10013
C         37.81309        52.99278        -0.98150
C         36.56582        52.35081        -0.76627
C         37.83359        54.34711        -1.43345
C         36.61934        54.96602        -1.77400
C         40.48429        16.50142        -2.77546
C         39.28368        17.22875        -2.71489
C         40.30608        18.93420        -1.24850
C         39.18146        18.46908        -2.07085
C         40.36039        20.34264        -0.79808
C         39.10381        21.05620        -0.75537
C         40.25747        23.02534         0.16821
C         39.06118        22.35476        -0.24056
C         40.22599        24.38368         0.46234
C         38.99513        25.15219         0.37359
C         40.22529        27.30775         0.71782
C         39.01732        26.59783         0.51495
C         40.24525        28.72636         0.69468
C         39.02452        29.44039         0.49527
C         40.26228        31.59857         0.52438
C         39.04053        30.87585         0.37002
C         40.27135        33.03309         0.39008
C         39.09334        33.72064        -0.02384
C         40.20827        35.89597         0.15959
C         38.99028        35.16575        -0.01609
C         40.19992        37.30532         0.19813
C         38.98170        38.03344         0.12547
C         40.25678        40.18724        -0.08612
C         38.95953        39.47205         0.00807
C         40.31505        41.68592        -0.17207
C         39.03505        42.44000        -0.26478
C         40.21701        44.52028         0.72205
C         38.98584        43.83507         0.17595
C         40.27179        45.98184         0.30761
C         39.04544        46.66906         0.16038
C         40.30169        48.80279        -0.09752
C         39.04094        48.09771         0.02239
C         40.32438        50.19211        -0.36125
C         39.08355        50.93719        -0.45214
C         40.33082        52.90248        -1.32244
C         39.05593        52.26722        -0.82157
C         40.31148        54.40751        -1.24382
C         39.09724        55.08935        -1.44208
C         40.29917        57.20792        -1.52616
C         39.11129        56.50302        -1.56636
C         42.93601        16.36974        -2.40482
C         41.66995        16.98154        -2.20881
C         42.86517        18.87101        -1.01475
C         41.61777        18.16613        -1.33971
C         42.81637        20.22792        -0.49571
C         41.54289        20.90325        -0.34215
C         42.79805        23.00394         0.36162
C         41.51140        22.20910         0.42847
C         42.78786        24.38950         0.67452
C         41.47765        25.05848         0.88577
C         42.76510        27.27221         0.98294
C         41.47282        26.56214         1.00693
C         42.71431        28.72635         1.18586
C         41.46389        29.47104         0.87784
C         42.73830        31.61715         1.02854
C         41.46812        30.86511         0.82322
C         42.73393        33.11319         0.84476
C         41.46651        33.79985         0.52467
C         42.71107        35.90952         0.32089
C         41.45386        35.18398         0.33970
C         42.74339        37.30189         0.34486
C         41.46284        38.01295         0.49114
C         42.75532        40.22874         0.30955
C         41.47131        39.50433         0.44102
C         42.74483        41.62272         0.34297
C         41.53217        42.40070         0.28000
C         42.75006        44.50699         0.80827
C         41.50898        43.76180         0.50081
C         42.75939        46.00038         0.63890
C         41.49417        46.68669         0.28748
C         42.78802        48.79156         0.05746
C         41.53138        48.08442         0.05067
C         42.79710        50.19450        -0.12538
C         41.56749        50.89434        -0.41266
C         42.74015        53.04259        -0.56984
C         41.57183        52.28073        -0.72457
C         42.76571        54.44572        -0.82898
C         41.53158        55.12471        -1.14099
C         42.76308        57.25594        -1.26223
C         41.52511        56.53817        -1.30812
C         44.07570        16.91387        -1.84187
C         45.28673        18.78389        -0.52599
C         44.06108        18.17898        -1.18667
C         45.29165        20.28997        -0.79320
C         44.00871        20.93808        -0.31215
C         45.25976        23.00173         0.27223
C         44.02509        22.32092         0.10394
C         45.26731        24.34409         0.96639
C         43.98153        25.12801         0.81333
C         45.23980        27.30439         0.98322
C         43.98130        26.56976         0.98240
C         45.27476        28.69358         0.93463
C         44.04483        29.47474         1.14472
C         45.21388        31.58595         0.59844
C         44.03505        30.91505         0.85403
C         45.21659        33.03581         0.37841
C         43.98281        33.79165         0.44023
C         45.14245        35.90855        -0.16997
C         43.93455        35.15596         0.19291
C         45.18769        37.36995         0.01638
C         43.97261        38.05940         0.23310
C         45.21084        40.20973         0.04018
C         43.97483        39.48930         0.25701
C         45.22933        41.59812         0.08303
C         44.02792        42.31219         0.51801
C         45.30467        44.52971         0.42231
C         44.05977        43.78265         0.73926
C         45.27841        45.98567         0.42749
C         44.05466        46.69356         0.41924
C         45.27736        48.82859         0.24754
C         44.04132        48.10326         0.23927
C         45.26060        50.26877         0.18568
C         44.02361        50.91898         0.00631
C         45.23851        53.18041         0.01490
C         43.93233        52.38838        -0.00462
C         45.23033        54.53857        -0.54612
C         43.99076        55.18779        -0.79556
C         43.94413        56.60347        -1.04558
C         47.74769        18.85372        -0.78146
C         46.60463        18.15492        -0.90025
C         47.75578        20.25671        -0.37707
C         46.55341        20.95928        -0.30989
C         47.74159        23.04285         0.20572
C         46.51478        22.34105         0.05977
C         47.71876        24.47765         0.44977
C         46.52320        25.13274         0.70351
C         47.76671        27.32705         0.72767
C         46.54448        26.56079         1.17280
C         47.74934        28.73470         0.66697
C         46.49989        29.43917         0.74705
C         47.70126        31.53292         0.33549
C         46.47769        30.84518         0.56869
C         47.67166        32.96058         0.00658
C         46.40530        33.69738         0.13214
C         47.66421        35.91000         0.13915
C         46.43604        35.13244        -0.19250
C         47.67510        37.36393        -0.09974
C         46.43138        38.06526        -0.11608
C         47.67631        40.19931        -0.27146
C         46.44599        39.48875        -0.15842
C         47.69748        41.62868        -0.29822
C         46.40194        42.39169        -0.39981
C         47.71543        44.49738        -0.00405
C         46.45619        43.82203         0.11377
C         47.80922        45.93796         0.46463
C         46.50610        46.70944         0.34850
C         47.83227        48.82450         0.52637
C         46.50455        48.10788         0.34445
C         47.79199        50.32116         0.26441
C         46.51231        51.03024         0.23011
C         47.72622        53.22375         0.13260
C         46.49768        52.41514         0.10074
C         47.66724        54.59168        -0.38697
C         46.48869        55.17759        -0.75476
C         50.23993        20.24671        -0.05358
C         48.99404        20.92523        -0.09020
C         50.22591        23.03100         0.17880
C         48.98153        22.33824         0.10707
C         50.19282        24.49684         0.06937
C         48.95648        25.21718         0.37016
C         50.23867        27.35023         0.49190
C         48.98297        26.62215         0.50629
C         50.22790        28.77824         0.57321
C         48.97983        29.46509         0.53655
C         50.20812        31.61584         0.37158
C         48.95539        30.87966         0.39590
C         50.23418        33.01848         0.25754
C         48.97757        33.71949        -0.02724
C         50.21783        35.92235         0.08174
C         48.95836        35.18079         0.26428
C         50.14869        37.30038        -0.13921
C         48.91102        38.03460        -0.17594
C         50.12718        40.20703        -0.30386
C         48.91768        39.48302        -0.28871
C         50.15576        41.62643        -0.38287
C         48.89866        42.33902        -0.37874
C         50.10110        44.52448        -0.64168
C         48.86752        43.79026        -0.30958
C         50.14620        45.99120        -0.46124
C         48.99223        46.66745        -0.12756
C         50.24926        48.80903        -0.27962
C         48.90330        48.14982        -0.35053
C         50.32629        50.24993         0.14185
C         48.99078        50.97529         0.10671
C         50.26403        53.09186        -0.42428
C         49.07106        52.44902         0.11563
C         51.42514        20.92773         0.13312
C         52.71521        23.07329         0.41117
C         51.45429        22.34737         0.21771
C         52.74049        24.48403         0.45182
C         51.51850        25.24917         0.15952
C         52.70220        27.36989         0.68222
C         51.47375        26.67881         0.47820
C         52.70089        28.79635         0.77243
C         51.45214        29.50254         0.65234
C         52.64748        31.68315         0.71938
C         51.44121        30.92722         0.57796
C         52.65530        33.07159         0.62353
C         51.43848        33.77632         0.36138
C         52.70123        35.92747         0.09605
C         51.44461        35.19853         0.17714
C         52.67248        37.28517        -0.20451
C         51.40170        38.01340        -0.55929
C         52.68622        40.22325        -0.16166
C         51.39360        39.46558        -0.12781
C         52.65252        41.67326        -0.42555
C         51.40186        42.32240        -0.49283
C         52.65821        44.51959        -0.77672
C         51.39323        43.76450        -0.79469
C         52.62491        45.94339        -0.82839
C         51.39411        46.67245        -0.70229
C         52.67553        48.81160        -0.74865
C         51.41623        48.10634        -0.57269
C         52.66015        50.24136        -0.81474
C         51.45024        50.96463        -0.58133
C         51.36554        52.35859        -0.79662
C         55.11078        23.07231         0.88616
C         53.93354        22.38807         0.64281
C         55.15091        24.48676         0.93669
C         53.93579        25.19868         0.73818
C         55.14400        27.35101         0.95193
C         53.92763        26.64368         0.78856
C         55.14339        28.78590         0.97536
C         53.92090        29.49685         0.92034
C         55.15878        31.71192         0.78159
C         53.89719        30.98172         1.19090
C         55.17738        33.06844         0.76483
C         53.89894        33.85479         0.99846
C         55.17236        35.89595         0.22613
C         53.95420        35.24446         0.38019
C         55.23370        37.27959        -0.29706
C         53.91104        38.02728        -0.47119
C         55.13547        40.19323        -0.42464
C         53.94149        39.49238        -0.39824
C         55.12411        41.64189        -0.57314
C         53.87332        42.35689        -0.65151
C         55.09551        44.50612        -1.01132
C         53.87673        43.80207        -0.80530
C         55.06888        45.90879        -1.13225
C         53.86594        46.64765        -0.95683
C         55.10376        48.81034        -1.16972
C         53.87853        48.09347        -0.97000
C         55.06242        50.22654        -1.23553
C         53.87936        50.91751        -1.09904
C         57.61902        24.54445         1.34794
C         56.38955        25.21476         1.13654
C         57.60803        27.36402         1.19918
C         56.38231        26.63957         1.09242
C         57.62174        28.79804         1.06253
C         56.39933        29.48366         0.95562
C         57.73554        31.64455         0.58929
C         56.39308        30.91006         0.60253
C         57.71776        33.10078         0.64479
C         56.46226        33.83836         0.98661
C         57.62198        35.99890         0.50084
C         56.44413        35.27241         0.50759
C         57.62732        37.44240         0.34173
C         56.43085        38.09765        -0.05410
C         57.58638        40.26216        -0.05482
C         56.39490        39.49791        -0.23611
C         57.56956        41.67733        -0.29863
C         56.34105        42.32670        -0.65654
C         57.62005        44.47966        -0.89498
C         56.37175        43.71086        -1.25786
C         57.66701        45.88317        -1.29374
C         56.30694        46.64929        -1.45114
C         57.59349        48.75097        -1.38378
C         56.34788        48.10439        -1.33703
C         58.80407        25.24599         1.48201
C         60.05742        27.38385         1.47866
C         58.82373        26.65643         1.39110
C         60.08483        28.74255         1.34924
C         58.88834        29.50848         1.11735
C         60.11757        31.69284         1.27865
C         58.94028        30.90974         0.99368
C         60.16720        33.04236         1.10662
C         58.99236        33.80868         0.65455
C         60.06595        36.15372         1.09602
C         58.94842        35.32552         0.60426
C         59.98334        37.50555         1.06325
C         58.80107        38.19289         0.58075
C         59.95922        40.40322         0.51469
C         58.79106        39.61081         0.35564
C         59.93939        41.76503         0.28091
C         58.76088        42.43292        -0.12469
C         59.93020        44.67635        -0.13909
C         58.75289        43.87535        -0.37165
C         59.97351        46.01686        -0.42891
C         58.84755        46.68672        -0.99178
C         58.80524        48.07035        -1.19793
O         50.89982        24.96207        -1.14351
O         57.04718        46.13795        -2.60467
O         44.40928        53.03140         1.22396
O         34.36658        42.00751        -1.09825
O         44.22224        42.89793         1.91167
O         36.35301        29.90781        -1.20150
O         48.54410        53.06517         1.34116
O         37.26304        50.97684         1.17517
O         34.23924        47.00738        -1.36735
O         41.32819        38.84367         1.73274
O         54.65415        37.47290        -1.62346
O         45.78450        35.48978        -1.44358
O         42.66287        45.37811         1.99803
O         48.19279        35.52922         1.47053
O         40.55233        40.84801        -1.35779
O         41.35356        25.69147         2.20587
O         43.37556        29.16441         2.42015
O         50.57758        44.12325        -1.98281
O         32.71237        27.86658         1.73427
O         31.68938        43.15676         2.33311
O         59.26852        34.57743        -0.63070
O         57.08185        31.14986        -0.66701
O         52.05959        39.78705         1.12773
O         42.74664        32.52020         2.19508
O         48.34944        33.31093        -1.28178
O         24.14828        34.22006         3.19340
O         37.03218        33.44863        -1.23914
O         40.70968        18.00189        -0.18735
O         34.93027        35.50161         2.19625
O         38.34392        42.14708        -1.51380
O         37.46151        22.61110         1.47618
H         38.15278        23.03239         2.03209
O         53.81264        34.03483         2.46145
H         53.71876        33.12262         2.83716
O         45.28919        20.44667        -2.24905
H         45.39454        21.40053        -2.44844
O         26.50686        28.98252         1.93260
H         25.65042        29.31433         2.27855
O         56.42899        43.48693        -2.70976
H         56.58532        44.37472        -3.11761
O         30.70639        27.96213        -1.96891
H         29.90909        28.43051        -2.29885
O         25.77461        37.77101         3.64809
H         26.48048        37.13554         3.91158
O         45.32349        24.02715         2.43507
H         44.48074        23.57451         2.66254
O         41.40564        21.79344         1.84324
H         40.71322        21.09992         1.89551
O         48.10086        45.83053         1.90142
H         47.29986        45.47275         2.34030
O         51.36560        38.08392        -2.02876
H         51.54072        37.18610        -2.38245
O         46.16339        42.57866        -1.85763
H         46.32735        41.71592        -2.29594
O         35.18213        19.49545        -0.48893
H         35.30348        20.02405         0.32885
O         34.60241        50.30987        -2.25510
H         33.90862        50.50812        -2.91781
O         34.69204        50.58461         1.36828
H         35.46974        50.62082         1.97242
O         48.24174        48.64481         1.89928
H         47.62228        49.13564         2.47707
O         40.38009        52.58221        -2.76672
H         41.15314        53.05378        -3.14347
O         35.49042        28.78274         2.22798
H         34.67899        28.37830         2.61225
O         25.46733        44.00495        -1.60884
H         24.66997        44.40625        -2.01636
O         53.87872        31.13460         2.67150
H         53.14437        30.57859         3.01165
O         30.26238        46.41326         2.20463
H         29.55327        45.88502         2.62936
O         32.45707        22.57248         0.53778
H         32.40772        21.59912         0.42168
O         50.73811        50.25113         1.55850
H         50.58399        51.15504         1.90769
O         45.11786        18.60808         0.90701
H         45.02000        17.65085         1.08989
O         35.16580        46.16595         2.07212
H         35.93221        45.74719         2.51751
O         56.52286        33.96210         2.47289
H         55.59814        34.18936         2.76325
O         27.00619        34.99539         3.58315
H         26.25534        34.50003         3.98089
O         40.04206        44.53285         2.18118
H         40.88666        44.89297         2.55266
O         48.40826        48.32361        -1.73206
H         49.02734        47.85560        -2.33272
O         46.69617        26.45124         2.64543
H         46.13532        25.68599         2.92957
H         22.14945        27.43928        -1.70607
H         22.09909        29.66515        -0.63372
H         22.04459        30.87139         1.01261
H         22.10449        32.83785         2.56135
H         22.14568        35.79926         3.22787
H         22.03700        38.11565         2.36406
H         21.99881        39.80152         1.50686
H         21.98533        42.12733         0.87754
H         21.97351        43.95293         0.38460
H         21.99368        46.32234        -0.20142
H         25.45524        24.05781        -2.34088
H         23.37642        25.35921        -2.28683
H         25.30243        49.72019        -0.61177
H         23.19931        48.44627        -0.48367
H         27.08642        23.03551        -2.33166
H         26.95145        50.65229        -0.86503
H         29.20241        21.84493        -2.49179
H         29.05686        51.85363        -1.00620
H         33.02071        19.75623        -2.78817
H         30.97298        21.09815        -2.95307
H         32.82609        54.02251        -1.08715
H         30.71160        52.82634        -0.92434
H         34.84827        19.24940        -3.50506
H         34.48429        54.80000        -1.97554
H         37.05147        18.21531        -3.78202
H         36.61215        55.99417        -2.15985
H         40.50960        15.56448        -3.35076
H         38.41043        16.82272        -3.24380
H         40.29791        58.30079        -1.64621
H         38.17131        57.05389        -1.70272
H         42.99952        15.44107        -2.99021
H         42.74956        58.34594        -1.40644
H         45.02935        16.38567        -1.97612
H         44.87298        57.18749        -1.00651
H         48.70576        18.36009        -0.99631
H         46.64854        17.08718        -1.16024
H         48.59659        55.17203        -0.45390
H         46.51726        56.19523        -1.16721
H         50.27282        19.15436        -0.15993
H         50.29411        54.18594        -0.50514
H         52.35987        20.35314         0.16868
H         52.21749        52.89582        -1.23638
H         56.02894        22.48996         1.03917
H         53.96243        21.29075         0.62726
H         55.98419        50.79420        -1.41664
H         53.90265        52.01324        -1.16068
H         57.64603        23.44849         1.40820
H         57.63402        49.84813        -1.41245
H         59.74786        24.70559         1.64333
H         60.99055        26.82322         1.63396
H         61.05209        29.26045         1.39314
H         61.02436        31.17938         1.62767
H         61.11151        33.57785         1.27937
H         60.99509        35.66469         1.42120
H         60.84677        38.09678         1.39794
H         60.90549        39.93702         0.81832
H         60.87351        42.32639         0.41188
H         60.82279        44.20841         0.29536
H         60.88426        46.59640        -0.21987
H         59.72712        48.65632        -1.07180
