         234
 CSIRO Nanostructure Databank - Neutral Graphene Oxide Data Set
C          1.40816         2.05811        -1.47495
C          1.31899         3.44568        -1.24757
C          2.56591         1.34052        -1.19803
C          2.37596         4.16175        -0.67340
C          1.14305         6.33175        -0.51508
C          1.12607         7.69570        -0.33416
C          2.35915         5.59061        -0.49614
C          2.33136         8.45992        -0.21241
C          1.08166        10.64724        -0.07443
C          1.01374        11.97197         0.18941
C          2.32206         9.88196        -0.03278
C          2.21308        12.72337         0.62490
C          0.99028        15.03971         0.66600
C          1.05725        16.37122         0.44806
C          2.20307        14.22024         0.88608
C          2.31811        17.09742         0.33983
C          2.33393        18.47077         0.02740
C          3.70116         1.97918        -0.63742
C          3.56466         3.39788        -0.25931
C          4.92230         1.31615        -0.45688
C          4.87252         4.18469         0.01230
C          3.58832         6.31652        -0.33984
C          3.57763         7.77562        -0.29328
C          4.80393         5.62818        -0.20561
C          4.78928         8.52158        -0.30218
C          3.54203        10.56646         0.14006
C          3.52023        12.04954         0.28799
C          4.78288         9.89911        -0.01506
C          4.79790        12.78687         0.51367
C          3.51229        14.98435         0.93028
C          3.54139        16.41448         0.50981
C          4.79115        14.22386         0.93664
C          4.76269        17.09190         0.28104
C          3.54070        19.15210        -0.10242
C          4.76609        18.47181         0.00667
C          6.14862         2.00136        -0.22778
C          6.15430         3.45801        -0.16002
C          7.37090         1.30493        -0.16473
C          7.33044         4.14930        -0.32548
C          6.05721         6.37570        -0.16777
C          6.07379         7.81196        -0.70817
C          7.35590         5.62213        -0.20853
C          7.29825         8.46736        -0.07854
C          6.09226        10.68627        -0.08751
C          6.10721        12.08168         0.51256
C          7.28368         9.86690         0.40415
C          7.28790        12.74264         0.67220
C          6.06842        14.90367         0.55331
C          6.05095        16.35339         0.24048
C          7.31450        14.22413         1.08508
C          7.32916        17.09051         0.23190
C          6.04826        19.26071        -0.16308
C          7.33207        18.46524        -0.03027
C          8.62429         1.97644        -0.21202
C          8.60077         3.42082        -0.52477
C          9.85488         1.34541        -0.04227
C          9.91195         4.19589        -0.45438
C          8.58838         6.36007        -0.72576
C          8.59178         7.81820        -0.35233
C          9.80643         5.65513        -0.14995
C          9.74586         8.53744        -0.37622
C          8.58541        10.56710         0.86729
C          8.59066        12.02945         0.33316
C          9.87938         9.79360         0.45543
C          9.84160        12.74276         0.81357
C          8.56252        14.98277         0.67621
C          8.55926        16.35001         0.35918
C          9.82961        14.30228         0.89085
C          9.81660        17.05745         0.19728
C          8.55223        19.13621        -0.21678
C          9.79021        18.45825        -0.13196
C         11.10036         2.06287         0.04697
C         11.12326         3.49256        -0.01657
C         12.31214         1.38579         0.27529
C         12.30829         4.22896         0.22200
C         11.01754         6.41252         0.34092
C         10.98555         7.92521         0.25747
C         12.31641         5.68179         0.23125
C         12.32306         8.52080         0.00200
C         11.05210        10.69491        -0.06546
C         11.10666        12.11403         0.47208
C         12.32991         9.96339         0.25463
C         12.29303        12.84242         0.51710
C         11.09470        14.99120         0.63653
C         11.05826        16.39872         0.33458
C         12.29200        14.27431         0.62070
C         12.29278        17.10249         0.09739
C         11.00829        19.13870        -0.38442
C         12.24374        18.48381        -0.30013
C         13.54016         2.08881         0.36142
C         13.54419         3.52608         0.32824
C         14.77042         1.39354         0.44135
C         14.78889         4.23454         0.31988
C         13.51453         6.36635         0.06086
C         13.51146         7.82187        -0.02943
C         14.78998         5.67088         0.08299
C         14.76248         8.54620        -0.20731
C         13.62425        10.68820         0.29742
C         13.58833        12.17695         0.18788
C         14.82671         9.92346        -0.07488
C         14.90860        12.86791         0.39009
C         13.56949        15.03964         0.68001
C         13.54358        16.45947         0.23847
C         14.89571        14.34046         0.76961
C         14.74541        17.14668        -0.09627
C         13.47093        19.16790        -0.57307
C         14.68818        18.52717        -0.48559
C         16.00090         2.08091         0.43633
C         15.99530         3.51833         0.38290
C         17.23516         1.37705         0.48830
C         17.27794         4.22593         0.36076
C         15.97453         6.34658        -0.19851
C         15.96668         7.77491        -0.57799
C         17.28198         5.70722         0.02561
C         17.32623         8.53753        -0.70783
C         16.08080        10.63904        -0.10221
C         16.11092        11.98803         0.40880
C         17.27911         9.96798        -0.37505
C         17.36344        12.49168         0.77522
C         16.10133        15.16234         0.44770
C         16.01885        16.48401        -0.04387
C         17.36578        14.64133         0.71270
C         17.25262        17.14193        -0.40588
C         15.95453        19.32871        -0.71076
C         17.23136        18.52028        -0.79638
C         18.48316         2.03741         0.39764
C         18.52379         3.45186         0.22233
C         19.72102         1.33033         0.48976
C         19.74842         4.12542         0.09241
C         18.51078         6.28661        -0.67100
C         18.60037         7.80270        -0.50705
C         19.80684         5.55238        -0.30407
C         19.80046         8.46335        -0.25084
C         18.53399        10.71478        -0.37711
C         18.56724        12.03865         0.22191
C         19.88306         9.94101        -0.35242
C         19.75948        12.84014         0.14314
C         18.56274        15.08569         0.09418
C         18.48641        16.43340        -0.42279
C         19.72147        14.27465        -0.02040
C         19.69422        17.07730        -0.83973
C         18.40334        19.14950        -1.16855
C         19.65276        18.45776        -1.19234
C         20.91678         2.01701         0.52320
C         20.95758         3.42754         0.35066
C         22.15722         4.17592         0.63993
C         21.08709         6.30712         0.01054
C         21.02656         7.78965         0.10591
C         22.18256         5.53595         0.62520
C         22.14444         8.53618         0.47959
C         21.04684        10.69986         0.14570
C         21.00809        12.13567         0.11165
C         22.16033         9.94337         0.53666
C         22.21190        12.94436         0.21231
C         20.93842        14.85226        -0.72144
C         20.92859        16.36295        -0.87121
C         22.19195        14.25876        -0.11384
C         22.08473        17.04296        -1.23593
C         20.85847        19.11578        -1.54642
C         22.05165        18.41731        -1.55359
O          6.99084         8.78966         1.33505
O         16.53338         8.12284        -1.87057
O          6.22579         7.70888        -2.10087
O          9.36760         3.77165        -1.73092
O         17.42098        13.58990         1.63456
O          9.80080        13.42177         2.08173
O          4.02381         3.69540         1.09313
O         14.23611        14.75179         1.99731
O         12.96729        10.26909         1.54139
O         10.03771         5.86246         1.27240
O          4.20158        12.69603        -0.85900
O         17.45455         5.28610         1.40601
O         20.79776         5.80158        -1.35658
O          6.83130         6.12545         1.05279
O         14.28306        12.71963        -0.96394
O          2.09565        13.25333         1.98328
O         19.34335        10.50709        -1.57617
O          4.23645        14.67218         2.18955
O         10.49816         8.83270         1.47813
O          6.08860        15.29238        -0.84100
O          8.69850        12.02728        -1.11327
H          7.84654        11.66655        -1.49388
O          7.23453        14.27769         2.52823
H          8.05251        13.84881         2.87739
O         20.88094        14.36192        -2.10840
H         20.85326        13.38095        -2.07281
O          8.54005        10.67476         2.28875
H          8.37729         9.76989         2.63887
O          8.57202         6.29790        -2.16141
H          7.74986         6.81228        -2.43380
O         18.28172         6.01696        -2.07487
H         19.12902         6.19845        -2.54059
O         10.99463        10.73888        -1.50750
H         10.18210        11.25017        -1.75417
O         15.81528        20.17011        -1.86465
H         15.75823        19.59703        -2.65631
O          6.31187        10.90622        -1.52195
H          5.56113        11.47012        -1.82996
O          6.03531        19.93759        -1.43273
H          6.02399        19.25874        -2.13851
H          0.55115         1.54120        -1.92840
H          0.40431         3.97119        -1.55598
H          2.62296         0.27139        -1.44839
H          0.18826         5.79618        -0.61199
H          0.15314         8.20310        -0.28805
H          0.15542        10.12360        -0.34810
H          0.04297        12.48709         0.16881
H          0.01227        14.54334         0.74015
H          0.12980        16.94819         0.31592
H          1.38229        19.00617        -0.10027
H          4.96222         0.23121        -0.63981
H          3.54461        20.22801        -0.32586
H          7.35735         0.20596        -0.10401
H          6.05957        20.07267         0.61525
H          9.87937         0.25629         0.11528
H          8.54168        20.20709        -0.46589
H         12.31933         0.28725         0.32937
H         10.97791        20.20285        -0.66134
H         14.76644         0.29408         0.47136
H         13.43731        20.22850        -0.86232
H         17.21644         0.28231         0.59394
H         16.06072        20.02909         0.16615
H         19.70434         0.23708         0.60367
H         18.37748        20.21298        -1.44866
H         21.85918         1.47487         0.68799
H         23.02872         3.61876         1.01503
H         23.06557         6.06514         1.00952
H         23.06896         8.01068         0.75531
H         23.07577        10.44351         0.87996
H         23.14767        12.47200         0.54547
H         23.11195        14.85706        -0.04681
H         23.04249        16.50841        -1.30369
H         20.83302        20.18123        -1.81620
H         22.98475        18.92614        -1.83347
