         344
 CSIRO Nanostructure Databank - Neutral Graphene Oxide Data Set
C          1.26855         3.66079        -1.64107
C          0.06787         4.34459        -1.60935
C          1.20733         6.45252        -1.11059
C          0.03219         5.72511        -1.33821
C          1.19034         7.87838        -0.81662
C          0.00040         8.57637        -0.57155
C          1.14863        10.70041        -0.17955
C         -0.00239         9.94043        -0.19735
C          1.14346        12.11058         0.18290
C         -0.04740        12.86254         0.09478
C          1.10414        14.85751         0.85697
C         -0.06547        14.20704         0.44675
C          1.09661        16.29018         1.34527
C         -0.12971        17.06328         0.95234
C          1.16097        19.11909         0.59318
C         -0.08406        18.37043         0.63497
C          1.16101        20.49296         0.35956
C         -0.06613        21.27316         0.28196
C          1.20930        23.22825        -0.55008
C         -0.06108        22.57914        -0.06150
C          1.19701        24.74360        -0.57655
C          0.05834        25.40504        -1.00320
C          1.24140        27.52549        -1.21710
C          0.06161        26.78763        -1.28978
C          1.29043        28.90326        -1.63465
C          3.71742         3.65261        -1.41002
C          2.49395         4.34651        -1.41029
C          3.67878         6.47308        -0.97183
C          2.46914         5.76825        -1.16827
C          3.64429         7.89098        -0.77726
C          2.43490         8.58104        -0.71179
C          3.65430        10.65874         0.03105
C          2.43898        10.09840        -0.67434
C          3.56240        11.91212         0.87570
C          2.33258        12.75571         0.60029
C          3.56344        14.85720         1.19912
C          2.32236        14.13499         0.92431
C          3.59477        16.24152         1.10282
C          2.38307        17.00943         0.99103
C          3.65995        19.13074         0.78085
C          2.40139        18.38993         0.77863
C          3.64594        20.54848         0.66243
C          2.40831        21.24095         0.37584
C          3.56409        23.43417         0.57462
C          2.40054        22.60313         0.12743
C          3.59123        24.83015         0.01509
C          2.42461        25.48110        -0.38829
C          3.63519        27.63247        -0.72169
C          2.44751        26.89311        -0.74709
C          3.69785        28.97161        -1.24567
C          2.46737        29.59159        -1.67021
C          6.15612         3.60598        -1.16233
C          4.93568         4.30252        -1.12344
C          6.10954         6.38276        -0.54256
C          4.93298         5.74556        -0.88385
C          6.18643         7.84430        -0.44897
C          4.91442         8.63875        -0.61991
C          6.05198        10.61700         0.56551
C          4.83032         9.99458        -0.02173
C          6.11245        12.13186         0.41451
C          4.82272        12.74005         0.85222
C          6.10156        14.80128         1.67392
C          4.77453        14.02117         1.61907
C          6.07797        16.30216         1.58713
C          4.91246        16.93698         0.84846
C          6.12348        19.15064         0.96534
C          4.88083        18.44181         0.93353
C          6.10807        20.58594         0.80291
C          4.88043        21.28225         0.65498
C          6.09166        23.42321         0.42138
C          4.88249        22.70224         0.48970
C          6.11815        24.85679         0.27983
C          4.83373        25.57390         0.24134
C          6.14952        27.67540        -0.44512
C          4.85522        27.06172        -0.14362
C          6.15912        29.00330        -0.98591
C          4.91858        29.63857        -1.32658
C          8.60297         3.60152        -0.99596
C          7.38249         4.23420        -0.83208
C          8.61876         6.36172        -0.22100
C          7.32399         5.58197        -0.14940
C          8.59328         7.76603         0.13035
C          7.38930         8.45748         0.15594
C          8.61263        10.60655         0.68063
C          7.34665         9.85680         0.60665
C          8.59562        12.02101         0.86523
C          7.36897        12.75503         0.99466
C          8.63494        14.82296         1.32844
C          7.39673        14.10352         1.39146
C          8.68878        16.28666         1.50895
C          7.36473        17.06760         1.56735
C          8.63535        19.22109         1.40646
C          7.34358        18.47542         1.19350
C          8.57404        20.63738         0.89680
C          7.33853        21.31767         0.77001
C          8.55886        23.45732         0.55374
C          7.33632        22.72518         0.54127
C          8.58072        24.88688         0.34198
C          7.33097        25.57082         0.18123
C          8.59438        27.64452        -0.38840
C          7.34474        26.98071        -0.18215
C          8.60616        29.01146        -0.83454
C          7.38573        29.65833        -1.15291
C         11.04954         3.66769        -1.06021
C          9.85374         4.29096        -0.80521
C         11.06924         6.39043        -0.17090
C          9.81946         5.70290        -0.40767
C         11.03704         7.73600         0.32998
C          9.83840         8.44741         0.43122
C         11.05715        10.59955         0.74671
C          9.83333         9.88593         0.65739
C         11.06585        12.02206         0.72002
C          9.83314        12.73456         0.87154
C         11.07039        14.88185         0.72833
C          9.83877        14.15401         0.97659
C         11.04576        16.28862         0.68169
C          9.87807        17.03084         1.03242
C         11.04012        19.14954         0.57836
C          9.85372        18.43113         0.93625
C         11.01073        20.61331         0.51337
C          9.76608        21.35519         0.79201
C         10.99083        23.55630         1.09937
C          9.77266        22.76149         0.69564
C         11.07137        24.92814         0.46640
C          9.82039        25.58138         0.22505
C         11.05996        27.65867        -0.29109
C          9.82400        26.96845        -0.15377
C         11.05426        29.03733        -0.68897
C          9.84025        29.68376        -0.97238
C         13.50968         3.57371        -0.59041
C         12.35668         4.40075        -1.08389
C         13.53249         6.39618        -0.11864
C         12.29707         5.74416        -0.38833
C         13.57015         7.68801         0.40135
C         12.30683         8.36598         0.72737
C         13.62500        10.64950         0.95937
C         12.31615         9.86952         0.95693
C         13.50257        11.93111         0.13801
C         12.28301        12.73604         0.53228
C         13.53449        14.80754         0.16259
C         12.29389        14.13944         0.46924
C         13.48487        16.25947        -0.09100
C         12.22205        17.02887         0.18260
C         13.49889        19.23131         0.25108
C         12.25613        18.50467         0.31912
C         13.56707        20.60087         0.50061
C         12.31098        21.36905         0.51137
C         13.59253        23.51341         0.89408
C         12.30382        22.77595         1.02366
C         13.57896        24.96449         0.59850
C         12.29880        25.60905         0.36277
C         13.52190        27.70642        -0.16392
C         12.30326        26.99860        -0.03645
C         13.49355        29.07990        -0.55290
C         12.29920        29.72114        -0.81331
C         15.89031         3.44007        -0.02781
C         14.73907         4.17704        -0.32649
C         15.95506         6.25445         0.36137
C         14.82335         5.68589        -0.49845
C         16.02503         7.74397         0.20124
C         14.81049         8.44601         0.43946
C         16.03281        10.55122         0.21764
C         14.82938         9.85104         0.48699
C         16.02943        11.99743         0.11276
C         14.79995        12.70415         0.14974
C         16.02051        14.83351        -0.40449
C         14.75113        14.10619         0.02516
C         16.01397        16.22150         0.24751
C         14.78957        17.03849        -0.25655
C         16.07093        19.18851         0.04190
C         14.77628        18.43107         0.42387
C         16.07289        20.63240         0.48127
C         14.81821        21.34148         0.60507
C         16.06970        23.48893         0.77312
C         14.82013        22.73230         0.64734
C         16.07003        24.94777         0.54377
C         14.78996        25.63364         0.41951
C         15.99186        27.75716         0.08414
C         14.80031        27.05365         0.09435
C         15.94459        29.27351         0.08165
C         14.78883        29.80204        -0.79499
C         18.41654         3.33683        -0.13761
C         17.20437         4.05144         0.40094
C         18.38761         6.18870        -0.22996
C         17.24891         5.53634         0.12200
C         18.39463         7.65723        -0.59969
C         17.21002         8.41444        -0.05842
C         18.49874        10.52584        -0.15379
C         17.23913         9.83392        -0.02674
C         18.51420        11.95171        -0.08776
C         17.27988        12.68501        -0.02430
C         18.51046        14.82514        -0.08781
C         17.30589        14.10305        -0.08950
C         18.51707        16.28997         0.00330
C         17.32057        16.98855         0.12160
C         18.55202        19.19405         0.20580
C         17.30424        18.43563         0.59365
C         18.50131        20.54840         0.04143
C         17.27616        21.28463         0.34097
C         18.57876        23.48029         0.23073
C         17.37509        22.72543         0.61209
C         18.54413        24.90248         0.30443
C         17.28121        25.61459         0.45315
C         18.52315        27.79239         0.00773
C         17.27836        27.12546         0.56976
C         18.50911        29.16617        -0.29439
C         17.23980        29.96940        -0.38803
C         19.55173         3.99838        -0.44950
C         20.81776         6.14520        -0.49522
C         19.63007         5.44912        -0.40580
C         20.86086         7.57238        -0.37708
C         19.71909         8.34180        -0.33632
C         20.93128        10.52503        -0.27833
C         19.72178         9.79578        -0.25542
C         20.94554        11.91055        -0.23241
C         19.75067        12.65910        -0.14533
C         20.95443        14.83916        -0.08041
C         19.76031        14.11157        -0.09741
C         20.95973        16.24513         0.01687
C         19.78947        16.98111         0.06491
C         21.01284        19.22957        -0.17896
C         19.85379        18.46240         0.40883
C         20.94003        20.52510        -0.51454
C         19.64951        21.31264        -0.57605
C         20.92492        23.50303        -0.31847
C         19.74176        22.77526        -0.14897
C         20.93118        24.88987        -0.17637
C         19.75388        25.61761         0.06692
C         20.93207        27.78020        -0.36172
C         19.74618        27.08086        -0.05964
C         20.91366        29.14528        -0.62988
C         19.70019        29.82938        -0.63329
O          4.71213        26.63511         1.25984
O          5.95508        15.66289         2.87623
O         13.07799        23.02712         2.23177
O         11.57725        21.18916        -0.74266
O         16.87365        23.08574         1.94250
O         12.56546        16.58252        -1.21388
O         12.25616         8.94593         2.09510
O          8.16489        16.79095         2.78203
O          6.47373        10.07536         1.83047
O          5.84068         8.52166        -1.75001
O         13.89024        11.03179         2.32777
H         13.59276        10.28417         2.89412
O         10.72598        23.83401         2.51111
H         11.60467        23.84330         2.96361
O          7.14241         5.28733         1.28380
H          7.89034         4.71621         1.56109
O          1.08068        16.20360         2.81378
H          1.12381        17.11961         3.16135
O         15.13171        29.64119        -2.18806
H         14.97196        28.70727        -2.43659
O         14.91031        17.21837        -1.69178
H         13.97775        17.31338        -2.02290
O         18.23024         7.70995        -2.05949
H         18.94583         7.16567        -2.45082
O         15.70074        29.64802         1.46237
H         16.15135        30.52098         1.58072
O          1.32642        22.85281        -1.97920
H          1.29079        21.87316        -2.02355
O         15.10434         5.96204        -1.88268
H         14.36649         5.56223        -2.40694
O          4.46739        13.66774         3.01983
H          4.70117        14.46013         3.56094
O         16.25954        19.33065        -1.38552
H         16.07499        18.46861        -1.82910
O         12.64972         4.70522        -2.51867
H         11.87198         5.18798        -2.87338
O         17.36212        31.19701         0.35972
H         18.30802        31.35856         0.55348
O         14.77187        18.21548         1.86096
H         15.03262        19.05517         2.29684
O          2.55956        10.53495        -2.07687
H          3.39688        10.16137        -2.42837
O          6.24899        12.33306        -1.04974
H          6.14055        13.28998        -1.23612
O         19.31287        21.40024        -2.00414
H         18.88041        20.55861        -2.26313
O         15.55470         6.00009         1.75194
H         16.01651         6.64995         2.32267
O         15.86333        15.91615         1.65131
H         15.95078        16.76324         2.15483
O          3.33623        23.64373         2.02885
H          3.96828        24.33462         2.32662
O         13.28593        11.49141        -1.24004
H         13.35047        12.27784        -1.82222
O         17.31639        27.41041         2.01558
H         16.76612        28.22017         2.16317
O          8.81064        19.38425         2.85952
H          8.67066        18.48788         3.25753
O          5.24835        16.62928        -0.56152
H          4.59318        17.09135        -1.12734
O         16.01879        14.86474        -1.85386
H         15.47720        15.63728        -2.14863
O         17.23091         3.86237         1.86097
H         16.49628         4.42687         2.20891
O          3.37867        11.38693         2.23577
H          3.64029        12.10704         2.86340
O         17.26953        18.40594         2.05257
H         18.19499        18.20368         2.34191
O         20.05497        18.47532         1.87860
H         20.23426        19.40385         2.14169
H          1.28967         2.57934        -1.83770
H         -0.87483         3.80888        -1.78900
H         -0.94404         6.22800        -1.31487
H         -0.96252         8.04852        -0.59388
H         -0.95890        10.38404         0.11477
H         -0.97266        12.38911        -0.26030
H         -1.01700        14.75105         0.38625
H         -1.10864        16.56995         1.03042
H         -1.02291        18.89253         0.40460
H         -1.01730        20.80216         0.56709
H         -1.00526        23.14246        -0.07722
H         -0.86987        24.84243        -1.17631
H         -0.86202        27.26947        -1.64136
H          0.35645        29.38230        -1.96372
H          3.72100         2.57017        -1.60712
H          2.49733        30.63072        -2.02895
H          6.16772         2.56392        -1.51661
H          4.94602        30.66863        -1.71175
H          8.63182         2.56585        -1.36819
H          7.40685        30.68855        -1.53769
H         11.04900         2.61665        -1.38788
H          9.84992        30.73221        -1.30499
H         13.39310         2.48292        -0.49856
H         12.30117        30.77598        -1.12540
H         15.80564         2.34333         0.04613
H         14.66719        30.89826        -0.61427
H         18.38612         2.23758        -0.17990
H         17.10137        30.23537        -1.47714
H         20.45117         3.44364        -0.75915
H         21.76618         5.59704        -0.59076
H         21.85336         8.04110        -0.31018
H         21.88991         9.99396        -0.35245
H         21.91657        12.42166        -0.27421
H         21.92335        14.32343        -0.09994
H         21.93190        16.75181         0.09392
H         21.98919        18.72308        -0.23342
H         21.84358        21.01421        -0.91045
H         21.86104        22.99521        -0.58648
H         21.88397        25.41144        -0.33233
H         21.89653        27.25817        -0.39439
H         21.84663        29.67307        -0.87006
H         19.67402        30.89589        -0.90195
