         280
 CSIRO Nanostructure Databank - Neutral Graphene Oxide Data Set
C         30.22268        31.63941        -0.87424
C         30.23264        32.83995        -0.56548
C         30.20967        35.95876         0.61828
C         30.20133        37.14279         0.99411
C         30.31280        40.13483         1.82836
C         30.25958        41.36584         1.77672
C         32.72302        28.98127        -1.80025
C         31.62471        29.51706        -1.64665
C         32.64911        31.53619        -0.75591
C         31.37912        30.99291        -1.58816
C         32.63205        32.98553        -0.27883
C         31.30969        33.72865        -0.12778
C         32.55881        35.99774        -0.02862
C         31.24800        35.22657        -0.11978
C         32.65532        37.18851         0.93960
C         31.40230        37.79597         1.56146
C         32.73611        40.02898         2.17479
C         31.41780        39.20560         2.06531
C         32.70392        41.55088         2.19913
C         31.32647        42.31373         2.05610
C         32.61415        44.32069         1.66525
C         31.57064        43.67032         1.55938
C         35.43991        27.33881        -1.38167
C         35.32589        28.76657        -1.75786
C         34.07452        29.63016        -1.91654
C         35.27110        31.57666        -0.59340
C         33.97428        30.83758        -0.90329
C         35.24759        33.10461        -0.26382
C         33.89452        33.77963        -0.52643
C         35.11248        36.11010        -0.35239
C         33.85101        35.27204        -0.37717
C         35.13923        37.48622         0.27235
C         33.97209        37.94556         1.11507
C         35.33519        40.10873         1.80462
C         34.02110        39.31595         1.78752
C         35.29477        41.62502         1.72366
C         33.97241        42.32977         1.84933
C         35.23632        44.64839         1.96017
C         33.96699        43.85887         2.00850
C         35.35260        46.04157         1.46906
C         37.87688        27.17423        -0.86613
C         36.51610        26.74937        -1.21996
C         37.86408        28.68728        -0.91569
C         36.61760        29.44874        -1.38890
C         37.82538        31.67176        -1.15829
C         36.56171        30.89243        -0.96191
C         37.72172        33.18186        -1.07737
C         36.40414        33.89556        -0.90955
C         37.72711        36.16477        -0.68261
C         36.40360        35.42133        -0.77395
C         37.74584        37.56084        -0.06662
C         36.47259        38.20113         0.43156
C         37.85856        40.24463         1.17067
C         36.58223        39.42361         1.31828
C         37.85694        41.72193         1.37850
C         36.59225        42.42302         1.80122
C         37.76548        44.67675         1.15012
C         36.59749        43.91897         1.85651
C         37.76235        46.14298         1.46847
C         36.46733        46.66247         1.50135
C         40.20353        24.39294        -0.31729
C         39.29228        25.05356        -0.80030
C         40.49248        27.14937        -0.95612
C         39.12161        26.42164        -1.35235
C         40.44506        28.64710        -0.85773
C         39.15698        29.36430        -1.36313
C         40.26539        31.61618        -0.45575
C         39.12468        30.90707        -1.12873
C         40.21109        33.11530        -0.37299
C         39.03807        33.90285        -0.94496
C         40.18213        35.95647         0.09357
C         39.03729        35.39019        -0.73545
C         40.25346        37.47853        -0.08076
C         39.03995        38.14649         0.55147
C         40.29150        40.41773         0.20964
C         39.01400        39.65683         0.40174
C         40.40046        41.82285         0.76885
C         39.11478        42.53761         1.04127
C         40.15659        44.65991        -0.16278
C         38.97958        43.96976         0.56235
C         40.05342        45.90787        -0.72459
C         38.76752        46.72729        -0.74584
C         40.05600        48.68387        -0.65828
C         39.04833        48.12569        -0.19634
C         42.56843        24.35143         0.76585
C         41.65968        24.58755        -0.36770
C         42.63183        27.15996         0.60095
C         41.67268        26.41459        -0.29164
C         42.46989        28.65253         0.83590
C         41.39011        29.37777         0.07474
C         42.76360        31.59100         0.21949
C         41.55112        30.84816        -0.23195
C         42.69263        33.09257         0.27394
C         41.56890        33.81555        -0.46824
C         42.82305        36.06310        -0.18946
C         41.54093        35.30324        -0.05535
C         42.79745        37.40829        -0.89965
C         41.49620        38.22074        -0.51866
C         42.84146        40.30811         0.22627
C         41.56481        39.76711        -0.39575
C         42.91115        41.83050         0.32186
C         41.64297        42.70258         0.51423
C         42.60999        44.44834        -1.12717
C         41.38868        43.82977        -0.47603
C         42.53842        45.88413        -1.58596
C         41.20913        46.57827        -1.42058
C         42.58611        48.66180        -1.19333
C         41.17193        48.43829        -1.55387
C         43.48117        24.98272         1.30295
C         44.83767        27.17130         1.91712
C         43.60870        26.42978         1.52585
C         44.95639        28.70077         1.75471
C         43.67542        29.44645         1.39195
C         45.11107        31.67520         1.31428
C         43.80386        30.91766         1.08699
C         45.17970        33.15277         1.01664
C         43.95084        33.87963         0.48595
C         45.38841        35.92433        -0.23897
C         44.05701        35.16417        -0.38519
C         45.40254        37.42186        -0.25863
C         44.18148        38.21456        -0.81972
C         45.38038        40.30193        -0.24871
C         44.09558        39.55156        -0.05279
C         45.39351        41.76366        -0.47899
C         44.11444        42.51277        -0.23585
C         45.27910        44.47270        -1.42716
C         43.98887        43.80197        -1.00052
C         45.19709        45.97099        -1.79534
C         43.86210        46.64976        -1.78644
C         43.61999        48.07291        -1.52628
C         47.29323        27.19581         1.76090
C         46.20986        26.66326         1.99850
C         47.53340        28.54843         1.14782
C         46.30806        29.39412         1.66133
C         47.63849        31.47328         0.80352
C         46.45260        30.94356         1.62182
C         47.69417        32.94523         0.52370
C         46.54936        33.84836         1.01163
C         47.84341        35.95028         0.57959
C         46.58572        35.18919         0.27917
C         47.85181        37.41750         0.35664
C         46.56971        38.09194        -0.01472
C         47.92029        40.33620         0.07720
C         46.62781        39.57421         0.11413
C         47.92719        41.85555         0.01418
C         46.59972        42.63628        -0.12268
C         47.97555        44.58931        -1.16493
C         46.65241        43.82099        -1.09183
C         47.61748        45.99676        -1.36975
C         46.53666        46.54463        -1.58179
C         50.16367        28.63386         0.89020
C         48.87794        29.23440         1.31560
C         50.22009        31.40259         0.53644
C         48.93861        30.72571         1.02170
C         50.26190        32.89398         0.85142
C         49.03753        33.65271         0.40396
C         50.36603        35.91249         0.66834
C         49.09957        35.15064         0.37266
C         50.42514        37.28775        -0.01789
C         49.12488        38.07211        -0.13046
C         50.49037        40.28584        -0.44996
C         49.16302        39.56694        -0.32449
C         50.52051        41.80738        -0.35115
C         49.22443        42.58248        -0.16772
C         50.52210        44.51500        -0.65327
C         49.20849        44.02375        -0.60746
C         51.25171        29.21410         0.75301
C         52.64138        31.48372         0.69154
C         51.52158        30.59837         0.36159
C         52.66608        32.71451         0.82158
C         51.56171        33.64043         1.14419
C         52.77249        35.97800         0.68113
C         51.61747        35.14663         1.06000
C         52.80019        37.20233         0.48018
C         51.75904        38.04176        -0.13660
C         52.80576        40.41619        -0.13489
C         51.74974        39.50327        -0.22846
C         52.95831        41.66326        -0.19900
C         51.82891        42.60296         0.09585
C         51.63667        43.89493        -0.69825
O         43.78913        26.88709         2.87218
O         42.65296        31.09753        -1.15442
O         34.50283        41.97265         0.53255
O         49.03816        30.18180         2.37778
O         40.02595        42.18203         2.12852
O         37.91594        27.98163         0.34436
O         36.30962        29.13851        -2.77127
O         49.17915        34.37718        -0.85613
O         45.49048        40.89047        -1.60391
O         44.58115        38.49908        -2.11687
O         50.59291        41.17804        -1.63570
O         47.31522        39.95113         1.35656
O         39.86583        32.32217         0.78429
O         43.49370        39.54437         1.27663
O         41.21626        29.02958         1.47447
O         41.59265        46.07405        -2.70179
O         42.27159        35.89761         1.12288
O         32.06015        39.42797         3.32047
O         37.76302        46.43708        -1.31976
O         32.18226        36.83309         2.28354
O         48.66915        42.38081         1.17172
O         44.89708        32.66375         2.35662
O         46.35454        35.25562        -1.13967
O         37.76456        44.18834        -0.21978
O         43.91117        42.41668         1.20857
O         32.02465        33.19850         1.02444
O         41.05074        27.98262        -2.00315
O         51.15510        37.32022        -1.26419
O         36.85986        43.16443         3.04536
O         36.08263        30.91393         0.42956
O         45.70312        29.10813         2.94558
O         47.48426        43.71196        -2.25446
O         36.22595        39.42983         2.72222
O         33.13028        30.61595         0.25261
O         39.24689        40.32445        -0.84503
O         31.71063        36.05269        -1.21431
O         34.81414        37.32107        -1.12437
O         34.55254        44.40615         3.20209
O         47.38129        31.97942        -0.52559
O         39.38476        34.82418        -2.02048
O         50.71066        33.16629         2.21177
O         40.43026        37.87651        -1.45816
O         44.52725        46.28697        -3.01853
O         36.86146        33.52619        -2.21980
O         44.55731        43.63425        -2.34405
O         33.79744        34.61073        -1.69607
O         47.88937        36.85779         1.71059
O         50.73298        31.02268        -0.77084
O         42.95121        26.84565        -0.80276
O         41.67898        43.58510        -1.85977
O         43.26542        30.43716         2.35723
O         50.80199        35.83670         2.04734
O         42.93266        33.73124         1.53180
O         38.22102        40.78318         2.44861
O         37.04705        38.54069        -0.86796
O         34.25165        38.08547         2.52260
O         38.61899        31.46889        -2.37012
O         36.99597        36.07845        -1.91917
O         31.95263        42.10048         3.32192
O         48.92764        38.66298        -1.44333
O         46.32750        43.26957         1.13959
H         46.51162        42.63610         1.86656
O         51.76158        42.89114         1.46211
H         52.55980        43.38377         1.74197
O         40.88311        48.76587        -2.84866
H         41.59493        48.45745        -3.44671
O         41.83511        33.75764        -1.87888
H         41.15767        34.29416        -2.35669
O         46.89304        34.18731         2.36378
H         46.58219        33.45024         2.94730
O         31.47176        31.51356        -2.88144
H         30.76368        31.14421        -3.44710
O         39.11983        29.15886        -2.78759
H         39.80387        29.71300        -3.22025
O         47.30714        28.43283        -0.25865
H         48.07011        27.97774        -0.67535
O         42.17089        24.21626        -1.58084
H         43.11362        24.47197        -1.64232
O         46.82268        31.33829         2.95277
H         46.24153        30.85240         3.58364
O         34.12659        30.26281        -3.18366
H         34.54135        29.66528        -3.84187
O         39.01284        37.98756         1.97444
H         39.13349        37.03155         2.19747
O         42.65983        37.03287        -2.27345
H         43.28929        37.64452        -2.76857
O         38.84153        46.67587         2.03768
H         38.67390        47.59867         2.32339
O         41.65154        40.26870        -1.73977
H         40.89316        39.89426        -2.24440
O         39.03605        26.34830        -2.76261
H         39.17985        27.25598        -3.12773
O         41.86832        43.51119         1.68944
H         42.07812        42.92650         2.44980
O         44.05858        34.68536        -1.73510
H         43.81306        35.43486        -2.32943
O         35.45543        33.26266         1.15490
H         35.70738        32.38943         1.53927
O         39.77066        35.59666         1.44867
H         40.58584        35.51127         1.99859
