         480
 CSIRO Nanostructure Databank - Neutral Graphene Oxide Data Set
C         37.57179        50.38465        -0.80963
C         36.36500        51.07521        -0.70418
C         37.55964        53.02013         0.08202
C         36.36233        52.40025        -0.26010
C         40.12709        48.79523        -0.89997
C         40.07293        50.25367        -0.65271
C         38.79100        50.99339        -0.47375
C         40.02654        53.00162         0.43041
C         38.79451        52.34125        -0.01013
C         40.12094        54.35430         0.70470
C         42.54956        48.63685        -0.40526
C         41.28535        48.08464        -0.85181
C         42.48871        49.97737         0.21604
C         41.31861        50.86656        -0.07776
C         42.54012        52.86342         0.99834
C         41.23076        52.17889         0.64233
C         42.56124        54.33457         1.10250
C         41.34693        55.00124         1.02957
C         44.99520        45.89894        -0.96216
C         43.87136        46.63597        -1.05616
C         45.01435        48.58200        -0.01328
C         43.76149        47.95248        -0.43935
C         45.03651        49.96309         0.30814
C         43.77523        50.67306         0.56211
C         45.07932        52.76401         1.06201
C         43.80577        52.19039         0.49675
C         45.05757        54.14482         1.66825
C         43.84157        54.99230         1.29491
C         45.19892        57.00283         1.70087
C         43.96125        56.36353         1.37407
C         47.51462        44.18782        -0.38641
C         47.45023        45.66593        -0.45908
C         46.14371        46.34162        -0.08777
C         47.45834        48.51278         0.25594
C         46.23259        47.85345        -0.01406
C         47.44578        49.90768         0.52186
C         46.24832        50.64422         0.54073
C         47.53602        52.74956         1.05549
C         46.24742        52.05972         0.94811
C         47.54615        54.20160         1.16595
C         46.36909        54.87758         1.46294
C         47.73117        56.86735         2.13919
C         46.37652        56.29232         1.74512
C         47.75873        58.36059         2.32536
C         49.95569        44.22573        -0.63111
C         48.68786        43.52204        -0.51581
C         49.97361        45.59614         0.00494
C         48.73380        46.41156        -0.29493
C         49.94993        48.40945         0.49514
C         48.73808        47.80836         0.20405
C         49.95574        49.79801         1.01030
C         48.67651        50.57598         0.97186
C         49.98471        52.72036         0.49119
C         48.71164        52.05382         0.94291
C         49.97532        54.23007         0.61638
C         48.79082        54.92960         0.90800
C         49.52347        57.27196         0.43665
C         48.73754        56.36867         1.12152
C         49.65724        58.66565         0.80030
C         48.69648        59.16008         1.77496
C         52.38074        41.58896        -1.54767
C         51.18303        42.23296        -1.41384
C         52.36229        44.44514        -1.36405
C         51.12134        43.62792        -1.06193
C         52.41385        45.78666        -0.66361
C         51.23214        46.39429        -0.20935
C         52.46889        48.42937         0.29649
C         51.23113        47.74313         0.22215
C         52.53573        49.80781         0.81969
C         51.24657        50.55741         1.10347
C         52.46584        52.68354         0.95378
C         51.26186        52.02417         0.94468
C         52.45854        54.19586         1.05620
C         51.25285        54.86284         0.41995
C         52.58077        56.92145         0.00070
C         51.37840        56.15177        -0.07818
C         52.61661        58.29493        -0.18699
C         50.71464        59.44526         0.31798
C         52.44618        61.21745         0.57624
C         51.16765        60.72179         0.76636
C         54.91624        40.12831        -1.44914
C         54.87769        41.54528        -1.30304
C         53.63818        42.26283        -1.35441
C         54.87077        44.37135        -1.15797
C         53.65964        43.67237        -1.22964
C         54.83576        45.87538        -1.30903
C         53.62478        46.49860        -0.65752
C         54.93705        48.54400        -0.11820
C         53.67070        47.82246        -0.15547
C         54.97003        49.90797         0.31158
C         53.76456        50.58694         0.63454
C         54.97094        52.69106         0.94871
C         53.73775        51.97426         0.90812
C         54.94764        54.14030         0.93247
C         53.78303        54.81867         0.71356
C         55.04256        57.00984         0.50791
C         53.87273        56.17409         0.07371
C         54.99810        58.43361         0.39175
C         53.75766        59.10561         0.12965
C         54.91487        61.26709         0.33128
C         53.67515        60.52658         0.26684
C         54.93297        62.69154         0.18071
C         57.34222        40.05439        -1.26369
C         56.11134        39.41915        -1.46199
C         57.35382        41.50675        -1.02243
C         56.09594        42.26224        -1.13391
C         57.37126        44.41778        -1.21908
C         56.11918        43.67716        -1.13011
C         57.33706        45.82199        -1.16489
C         56.13377        46.53482        -0.93877
C         57.41035        48.57564        -0.35181
C         56.14150        47.88797        -0.51150
C         57.41989        49.90262         0.17653
C         56.22116        50.60941         0.43718
C         57.43243        52.78366         0.72994
C         56.21333        52.01807         0.76408
C         57.46593        54.18687         0.84470
C         56.21259        54.90358         1.23840
C         57.44514        57.07503         0.92193
C         56.21628        56.35563         0.84092
C         57.42629        58.49369         0.80425
C         56.19122        59.17827         0.60570
C         57.39436        61.34156         0.62336
C         56.16392        60.60407         0.50429
C         57.36366        62.78682         0.50770
C         56.09894        63.40752         0.23624
C         59.75888        37.18800        -1.01167
C         58.60549        37.89087        -1.17021
C         59.80068        40.03349        -1.25002
C         58.59650        39.34328        -1.22685
C         59.83662        41.46930        -1.70148
C         58.66102        42.25415        -1.15894
C         59.84647        44.37323        -1.58373
C         58.64614        43.72371        -1.36997
C         59.86470        45.85303        -1.63432
C         58.55000        46.64749        -1.51690
C         59.86485        48.59898        -0.56059
C         58.62167        47.92236        -0.68901
C         59.92416        49.90206        -0.08672
C         58.71192        50.55256         0.40017
C         59.91226        52.86656         0.33712
C         58.71247        52.08170         0.63848
C         59.89577        54.22896         0.56259
C         58.67795        54.92260         0.86041
C         59.89269        57.11895         1.01171
C         58.68301        56.36536         0.99820
C         59.87612        58.51946         0.93328
C         58.64969        59.23041         0.83820
C         59.87101        61.39982         0.98789
C         58.62451        60.66196         0.78108
C         59.77270        62.89494         1.24942
C         58.54222        63.53762         0.64978
C         59.76190        65.65604         0.46152
C         58.59424        64.94079         0.39671
C         62.14140        35.86052         0.03248
C         62.12376        37.26115        -0.28793
C         61.02109        37.87027        -0.84995
C         62.32453        40.05611        -1.04637
C         61.08450        39.27023        -1.40132
C         62.33925        41.47894        -1.41812
C         61.17051        42.17549        -1.53642
C         62.43445        44.35719        -1.42335
C         61.16896        43.65152        -1.91910
C         62.44276        45.73030        -1.17638
C         61.18285        46.51555        -1.32745
C         62.46191        48.57868        -0.53368
C         61.15254        47.86141        -0.68585
C         62.46404        50.05163        -0.44953
C         61.14468        50.70167        -0.31854
C         62.39572        52.94877        -0.32846
C         61.10380        52.19183        -0.21654
C         62.41464        54.38603         0.13012
C         61.17831        54.94041         0.73598
C         62.47308        57.11875         0.93657
C         61.18634        56.40077         1.04631
C         62.39064        58.56024         1.24433
C         61.16387        59.28051         0.71030
C         62.32134        61.47675         1.43944
C         61.06673        60.73685         1.11299
C         62.32270        62.95365         1.21595
C         61.05153        63.64856         0.92498
C         62.27293        65.79716         0.73825
C         61.03401        65.01567         0.71859
C         62.29682        67.16401         0.54059
C         64.48409        36.00521         0.73863
C         63.26617        35.26605         0.52372
C         64.54570        37.36581         0.49586
C         63.25654        38.11840         0.23683
C         64.75406        40.03650        -0.58741
C         63.40577        39.42863        -0.50048
C         64.88716        41.37993        -1.24852
C         63.66275        42.16227        -1.76277
C         64.88345        44.32548        -1.25690
C         63.67222        43.64152        -1.40071
C         64.91814        45.75265        -1.14287
C         63.67710        46.44725        -1.03274
C         64.89594        48.59002        -0.99942
C         63.70603        47.87173        -0.90308
C         64.86074        50.07262        -1.02139
C         63.62437        50.77689        -0.59892
C         64.86343        52.95094        -0.39464
C         63.66883        52.22030        -0.44729
C         64.84075        54.35519        -0.00802
C         63.70281        55.04478         0.39610
C         64.95278        57.18541         0.97497
C         63.68667        56.45550         0.81317
C         64.95306        58.58264         1.21580
C         63.67608        59.30224         1.42702
C         64.64272        61.42253         0.36283
C         63.72158        60.82885         1.44540
C         64.73443        62.94660         0.49962
C         63.59983        63.62898         0.86084
C         64.84735        65.85597         0.58740
C         63.55537        65.10000         0.94418
C         64.73336        67.27973         0.22019
C         63.50095        67.89223         0.32329
C         67.00201        33.23544         1.40471
C         65.83208        33.84570         1.08639
C         66.88711        36.08633         1.65569
C         65.64007        35.28001         1.31888
C         66.91524        37.51052         1.26843
C         65.77047        38.12475         0.69718
C         67.04411        40.20154         0.45448
C         65.86788        39.46436         0.22214
C         67.24041        41.53792        -0.17154
C         66.18402        42.13269        -1.06483
C         67.37984        44.36133        -0.87030
C         66.20337        43.61116        -1.45622
C         67.42176        45.77964        -1.07568
C         66.14914        46.49481        -1.17441
C         67.38159        48.68284        -1.13984
C         66.14742        47.91322        -1.14194
C         67.41989        50.07082        -1.04828
C         66.14906        50.84508        -1.06130
C         67.34868        52.92971        -0.56859
C         66.14860        52.27727        -0.64015
C         67.38390        54.38807        -0.33160
C         66.09600        55.12503        -0.04966
C         67.41925        56.82043         1.06772
C         66.14370        56.39916         0.70907
C         67.44174        58.97695         1.16706
C         66.09528        59.48270         0.99412
C         67.15093        61.40690        -0.21853
C         65.98671        60.77238         0.52748
C         67.16868        62.92683        -0.22319
C         65.95616        63.65416         0.09153
C         67.06025        65.79518        -0.56142
C         65.96140        65.05591         0.06289
C         67.12871        67.26998        -0.44595
C         65.94959        67.99148        -0.15446
C         67.15658        70.07002        -0.51575
C         65.98791        69.40385        -0.19661
C         69.44785        31.84546         2.23016
C         69.40980        33.25819         2.12266
C         68.17950        33.96419         1.82294
C         69.36098        36.12780         1.99804
C         68.16215        35.36398         1.81221
C         69.32235        37.55979         1.93402
C         68.10585        38.24246         1.49031
C         69.22763        40.46379         1.68437
C         68.11882        39.62525         1.17620
C         69.32191        41.90083         1.25709
C         68.33065        42.40851         0.29984
C         69.78386        44.35251        -0.23221
C         68.45634        43.70009        -0.23299
C         69.88477        45.79114        -0.76954
C         68.61634        46.49407        -0.99743
C         69.91641        48.67045        -0.95376
C         68.67121        47.94018        -1.40434
C         69.88762        50.10864        -0.99997
C         68.67336        50.79349        -1.02121
C         69.84940        52.86270        -0.18019
C         68.66965        52.31855        -1.02509
C         69.89344        54.37278        -0.07506
C         68.66467        55.03226         0.01916
C         69.82610        57.21897         0.20782
C         68.63247        56.34524         0.53457
C         69.86387        58.66130         0.79666
C         68.56992        59.43116         0.56590
C         69.66890        61.40180        -0.69434
C         68.54511        60.90088         0.23657
C         69.66322        62.91730        -0.57890
C         68.37582        63.57932        -0.50545
C         69.62296        65.79172        -0.78365
C         68.36707        65.02390        -0.79861
C         69.59300        67.21239        -0.86224
C         68.34448        67.94673        -0.73351
C         69.58755        70.08683        -1.07431
C         68.35620        69.37029        -0.77742
C         69.59861        71.48619        -1.28152
C         71.80990        31.90866         2.73357
C         70.62546        31.18085         2.52903
C         71.79709        33.29085         2.64540
C         70.60622        33.99669         2.34325
C         71.75520        36.21193         2.44792
C         70.58355        35.44563         2.25942
C         71.71451        37.59353         2.41006
C         70.50933        38.28610         2.16795
C         71.74018        40.53609         2.20145
C         70.47340        39.76949         2.21158
C         71.82265        41.82961         1.84258
C         70.66080        42.62567         1.39595
C         72.07842        44.54379         0.59436
C         70.89423        43.84063         0.57642
C         72.18215        45.87036         0.08534
C         71.10044        46.55197        -0.44553
C         72.34797        48.71694        -0.56182
C         71.09560        47.98968        -0.65329
C         72.41172        50.04665        -0.78911
C         71.18892        50.83345        -0.98715
C         72.38009        52.97685        -0.04587
C         71.18987        52.30333        -0.62015
C         72.32857        54.26655         0.35951
C         71.11329        55.06682         0.26607
C         72.30475        57.25214         0.71081
C         71.12443        56.46445         0.44133
C         72.32550        58.61708         0.64162
C         71.09309        59.32746         0.18866
C         72.21987        61.57447        -0.47610
C         71.02506        60.71197        -0.41575
C         72.12133        62.91525        -0.60963
C         70.85066        63.63151        -0.63556
C         72.04901        65.83870        -0.71159
C         70.84735        65.09079        -0.69109
C         72.03133        67.21086        -0.87380
C         70.81731        67.92914        -0.96326
C         72.00429        70.08508        -1.42277
C         70.81337        69.37245        -1.14902
C         71.99039        71.45823        -1.61917
C         70.77929        72.16310        -1.54994
O         71.11461        59.50722        -1.26475
O         62.24577        54.05772        -1.28682
O         41.75338        52.18073         2.00568
O         69.58849        42.81399         2.37965
O         52.04233        50.01598         2.20069
O         42.96636        50.03313         1.59429
O         62.22031        62.37459         2.60166
O         49.17164        49.98460         2.24010
O         51.48363        58.91367        -0.73814
O         65.90544        35.73419         2.69299
O         67.30104        41.42344        -1.67373
O         64.44371        65.62358         1.97786
O         50.25214        56.76718        -0.66454
O         48.14582        46.23649        -1.62324
O         41.04861        50.99561        -1.50015
O         58.20661        41.87062         0.16085
O         67.52966        57.85519         2.00576
O         62.86419        58.86391         2.59139
O         71.31470        51.89918        -2.00350
O         70.15598        44.63929        -1.62860
O         65.37707        50.62332        -2.29534
O         60.69164        46.45241        -2.70319
O         58.90713        51.12278         1.74863
O         61.30810        55.37373         2.12426
O         60.82242        51.55370        -1.52170
O         66.69262        55.16660        -1.39522
O         61.82696        47.88221         0.62212
O         65.10921        40.17118        -2.03594
O         69.44475        40.28401         3.11892
O         67.45198        65.34428        -1.90132
O         44.93515        53.92979         3.11631
H         44.95176        54.81193         3.54526
O         66.44413        43.63463        -2.89468
H         67.13193        42.95412        -3.07383
O         59.59998        63.05698         2.69993
H         60.47048        62.80984         3.10400
O         52.29682        54.48075         2.49622
H         53.05412        54.07469         2.97015
O         48.04999        56.30268         3.44507
H         48.17661        55.33641         3.33046
O         54.16901        55.84815        -1.34778
H         54.12983        56.68492        -1.85917
O         61.38452        59.27805        -0.74151
H         60.62195        59.72341        -1.16756
O         61.21388        39.09532        -2.88328
H         60.57089        38.39856        -3.14056
O         69.68001        57.41989        -1.23048
H         69.68479        56.54039        -1.66549
O         68.79256        61.55644         1.52187
H         69.34646        60.96424         2.07523
O         66.83932        60.99131        -1.58150
H         67.65653        61.14090        -2.13127
O         61.24096        43.70325        -3.36897
H         60.58822        43.04602        -3.70966
O         68.79845        47.90475        -2.87968
H         68.00213        47.45293        -3.23358
O         49.98443        52.45929        -0.97452
H         49.41436        53.13710        -1.39756
O         70.11671        58.61315         2.21845
H         69.31671        58.21571         2.63794
O         56.23446        54.92824         2.71769
H         56.56405        54.05749         3.02754
O         58.24473        47.13139        -2.86061
H         59.10696        47.25589        -3.32330
O         52.25638        44.76661        -2.80406
H         51.38758        45.20004        -2.94900
O         54.68765        46.12974        -2.74990
H         53.85727        45.67031        -3.03687
O         43.83504        52.53161        -0.92970
H         44.65755        52.16551        -1.31844
O         64.37390        61.17466         2.68037
H         63.81732        60.83485         3.41366
O         45.85201        45.87304         1.26459
H         45.05494        46.34747         1.58286
O         49.90313        45.35548         1.44860
H         50.72365        44.89567         1.72368
O         63.74975        42.11219        -3.20653
H         64.08153        41.21603        -3.44013
O         69.61638        52.36760         1.17421
H         70.28939        52.77021         1.76298
O         59.64835        41.42316        -3.16589
H         60.29331        40.74504        -3.49087
O         62.81208        38.52932         1.58557
H         62.80346        37.72678         2.15054
O         64.11228        61.11409        -0.94427
H         64.88037        61.08670        -1.56601
O         69.37144        61.11859        -2.08512
H         69.78637        60.24098        -2.28135
O         68.86083        52.79966        -2.37165
H         68.14007        52.44678        -2.93398
H         37.55862        49.34827        -1.17364
H         35.42343        50.57891        -0.97571
H         37.53233        54.05518         0.44831
H         35.41610        52.95194        -0.17447
H         39.20258        48.27135        -1.18193
H         39.23673        54.99803         0.59614
H         41.24775        47.01750        -1.11431
H         41.31548        56.09257         1.15883
H         45.05199        44.91252        -1.44566
H         43.02086        46.25448        -1.63903
H         45.20054        58.08843         1.87436
H         43.08419        57.00566         1.20899
H         46.57491        43.63270        -0.25280
H         47.04216        58.78344         3.04480
H         48.67850        42.42265        -0.53914
H         48.71230        60.23308         2.01936
H         52.37151        40.51300        -1.76483
H         50.25387        41.65257        -1.49384
H         52.58042        62.25749         0.91145
H         50.45348        61.36799         1.30051
H         53.98385        39.56758        -1.58802
H         53.99662        63.22864        -0.02233
H         56.06871        38.33504        -1.63179
H         56.04796        64.49647         0.10561
H         59.70363        36.09750        -0.89100
H         57.65306        37.34663        -1.20827
H         59.73092        66.73305         0.25182
H         57.67943        65.47159         0.09878
H         61.25698        35.24120        -0.16717
H         61.35685        67.72536         0.45227
H         63.24989        34.19264         0.75391
H         63.40355        68.96599         0.11187
H         67.08578        32.15395         1.23293
H         65.02744        33.26256         0.61671
H         67.14328        71.16749        -0.53187
H         65.08661        69.98694         0.03393
H         68.53207        31.25606         2.09075
H         68.66208        72.05836        -1.24619
H         72.74432        31.38172         2.97079
H         70.63297        30.08526         2.61121
H         72.73372        33.83641         2.82047
H         72.71728        35.72240         2.64499
H         72.64499        38.14692         2.58886
H         72.66729        40.01827         2.48384
H         72.81171        42.30997         1.82945
H         72.94547        44.14979         1.14257
H         73.12763        46.39491         0.27675
H         73.27987        48.15769        -0.40833
H         73.38265        50.55797        -0.83543
H         73.33991        52.44067        -0.02369
H         73.24541        54.74353         0.73410
H         73.24051        56.72850         0.96066
H         73.26304        59.16652         0.81213
H         73.20656        61.09054        -0.44470
H         73.05225        63.49330        -0.67250
H         73.02192        65.34018        -0.61977
H         72.99067        67.74325        -0.90818
H         72.96188        69.55327        -1.49967
H         72.92592        71.99163        -1.83712
H         70.76470        73.24949        -1.71354
