         324
 CSIRO Nanostructure Databank - Neutral Graphene Oxide Data Set
C          1.20189         3.21582        -0.67656
C         -0.00047         3.86509        -0.48646
C          1.12501         6.02221        -0.44919
C         -0.04053         5.26946        -0.36481
C          1.00728         7.54497        -0.50540
C          0.09311         8.17753         0.52900
C          1.43018        10.26664         0.75910
C          0.21786         9.43032         0.99993
C          1.41557        11.76580         0.85196
C          0.37721        12.52220         1.32820
C          1.39038        14.72643         0.77164
C          0.38062        13.96430         1.32014
C          1.42851        16.19973         0.78769
C          0.27356        16.92830         1.26907
C          1.44046        19.08423         1.11856
C          0.22169        18.28667         1.28288
C          1.31275        20.57587         0.89204
C          0.52529        21.22261         2.00321
C          1.57709        23.36035         1.48766
C          0.62606        22.54628         2.22586
C          1.48903        24.78140         1.51778
C          0.48699        25.47347         2.22247
C          1.54570        27.65855         1.89051
C          0.52633        26.85887         2.42027
C          1.76116        28.99706         2.34877
C          3.62010         3.14596        -0.95271
C          2.44069         3.92152        -0.70287
C          3.54151         6.18132        -0.90373
C          2.38775         5.37036        -0.62039
C          3.45508         7.61456        -1.09761
C          2.33759         8.24645        -0.60565
C          3.60444        10.40001        -0.64350
C          2.47777         9.62278        -0.10566
C          3.75942        11.71216        -0.18503
C          2.53926        12.48129         0.19895
C          3.66671        14.81613        -0.38481
C          2.49623        13.99600         0.11010
C          3.54432        16.31642        -0.58034
C          2.47789        16.93789         0.22769
C          3.76356        19.16350        -0.04414
C          2.64662        18.36301         0.53976
C          3.75251        20.61130         0.13489
C          2.63375        21.28550         0.64740
C          3.74534        23.49014         0.28570
C          2.63370        22.71067         0.79253
C          3.66182        24.88201         0.21911
C          2.44534        25.55220         0.70536
C          3.63713        27.88949         0.45946
C          2.42855        27.09954         0.86259
C          3.86569        29.20080         1.10437
C          2.84819        29.74022         1.96181
C          6.21190         3.24520        -0.93905
C          4.90283         3.59208        -0.58720
C          6.06999         6.28488        -0.95846
C          4.83139         5.71573        -0.60039
C          6.06026         7.64622        -1.54231
C          4.67375         8.34954        -1.55999
C          5.69580        10.65424        -1.82784
C          4.63206         9.82030        -1.40327
C          6.05929        11.83374        -1.13181
C          5.05342        12.24308        -0.22767
C          6.14360        14.89017        -0.85000
C          5.04848        14.37678        -0.23780
C          6.08361        16.32925        -1.24013
C          4.78632        17.08688        -0.95668
C          6.04199        19.29434        -1.02647
C          4.83099        18.53443        -0.64558
C          6.12080        20.70553        -0.63496
C          4.94512        21.36160        -0.19380
C          6.13822        23.48925        -0.39490
C          4.94751        22.78619        -0.11736
C          6.10081        24.95141        -0.56315
C          4.77651        25.67301        -0.34554
C          6.15039        27.82198        -0.05935
C          4.83506        27.16381        -0.14047
C          6.18225        29.21732         0.25500
C          5.04393        29.86822         0.84839
C          8.57433         3.52231        -0.46992
C          7.32067         4.12550        -0.64927
C          8.50391         6.34992        -0.62285
C          7.27255         5.58549        -0.70067
C          8.52412         7.74125        -0.91334
C          7.35574         8.38406        -1.48413
C          8.74138        10.47446        -2.06613
C          7.52090         9.62016        -2.06050
C          8.52804        11.96250        -1.65983
C          7.34973        12.57514        -1.28408
C          8.65883        14.83726        -0.98201
C          7.39243        14.04951        -0.85145
C          8.64813        16.34498        -0.87357
C          7.35323        17.08692        -1.00109
C          8.64101        19.26461        -0.99888
C          7.36954        18.55807        -1.24695
C          8.60984        20.67382        -0.89056
C          7.35826        21.38801        -0.73444
C          8.59951        23.54419        -0.67219
C          7.36736        22.80802        -0.58926
C          8.58956        24.97956        -0.58610
C          7.37267        25.69778        -0.48351
C          8.61575        27.81997        -0.27733
C          7.36113        27.11030        -0.28704
C          8.61066        29.26993        -0.14414
C          7.38426        29.92742         0.13501
C         10.93842         3.61822         0.16028
C          9.73566         4.27014        -0.15368
C         10.89999         6.43366         0.07138
C          9.70869         5.70043        -0.22182
C         10.92674         7.84366        -0.29505
C          9.76530         8.47754        -0.83789
C         11.07286        10.54400        -1.19773
C          9.86577         9.83365        -1.28282
C         11.14484        11.99258        -1.56698
C          9.81747        12.72052        -1.78518
C         11.14873        14.96348        -1.52012
C          9.84405        14.21530        -1.63122
C         11.12671        16.40519        -1.12299
C          9.91870        17.09692        -1.03124
C         11.10135        19.25785        -0.87834
C          9.87565        18.53838        -0.94711
C         11.07610        20.69394        -0.83209
C          9.84036        21.40208        -0.82550
C         11.06818        23.56221        -0.77500
C          9.83127        22.83739        -0.74911
C         11.05176        24.97930        -0.78254
C          9.83418        25.69733        -0.64600
C         11.08582        27.86850        -0.45386
C          9.81222        27.12533        -0.49530
C         11.07990        29.38411        -0.33137
C          9.77685        30.02299        -0.28802
C         13.23715         3.44838         0.78292
C         12.10133         4.30865         0.57759
C         13.18851         6.61213         0.98759
C         12.03640         5.75972         0.60701
C         13.31737         7.97038         0.36165
C         12.15310         8.55775        -0.32185
C         13.56001        10.58773        -1.08192
C         12.24456         9.88284        -0.77067
C         13.52984        12.04243        -0.60077
C         12.33493        12.79805        -1.16626
C         13.63035        14.92218        -1.05040
C         12.38211        14.17111        -1.27361
C         13.61055        16.39139        -1.01223
C         12.36811        17.10747        -1.02109
C         13.57375        19.22738        -0.71391
C         12.34969        18.53086        -0.87799
C         13.54043        20.68366        -0.49548
C         12.29704        21.43378        -0.73717
C         13.58201        23.55813        -0.82055
C         12.31529        22.83790        -0.76617
C         13.59792        24.99916        -0.95441
C         12.30702        25.70968        -1.07928
C         13.58400        27.97965        -0.94364
C         12.29159        27.22040        -1.04515
C         13.57231        29.41278        -0.52167
C         12.29518        30.16820        -0.81062
C         15.72582         3.28076         1.30530
C         14.44974         3.78948         1.42552
C         15.71081         6.47814         1.09158
C         14.46777         6.01919         1.41480
C         15.87358         7.83145         0.59176
C         14.67826         8.47125         0.00649
C         16.08854        10.54469        -0.34311
C         14.81305         9.83578        -0.61252
C         16.14188        11.98120        -0.73956
C         14.84366        12.73920        -0.93406
C         16.12594        14.90320        -0.90190
C         14.81753        14.22384        -0.92866
C         16.10879        16.43285        -0.89138
C         14.81012        17.12204        -0.86962
C         16.06846        19.26899        -0.60827
C         14.80987        18.54323        -0.70470
C         16.11718        20.68818        -0.69655
C         14.85454        21.44394        -0.55749
C         16.05542        23.59332        -1.08647
C         14.79413        22.87567        -0.84518
C         16.07014        25.03439        -0.80835
C         14.79904        25.69845        -0.83600
C         16.00706        27.79871        -0.13402
C         14.83435        27.17896        -0.81673
C         15.95972        29.28340         0.16277
C         14.70492        30.02894        -0.11890
C         18.00550         3.64496         2.43891
C         16.91944         4.15129         1.57207
C         18.10564         6.43764         1.74948
C         16.92395         5.65096         1.34576
C         18.35047         7.72658         0.98310
C         17.08738         8.48803         0.59990
C         18.55429        10.53964         0.23708
C         17.17699         9.87589         0.18905
C         18.47694        12.05518         0.32062
C         17.45899        12.74528        -0.56392
C         18.32209        15.00294         0.29166
C         17.23446        14.21134        -0.24591
C         18.44666        16.44078        -0.01549
C         17.29993        17.14588        -0.41204
C         18.52881        19.26645        -0.26029
C         17.29553        18.56742        -0.43615
C         18.56729        20.68097        -0.46112
C         17.34298        21.37060        -0.73283
C         18.58824        23.58574        -0.68019
C         17.38109        22.82599        -1.01179
C         18.54781        24.97611        -0.51436
C         17.29006        25.70643        -0.58181
C         18.47465        27.81009         0.01168
C         17.29870        27.10856        -0.26387
C         18.44311        29.25053         0.22662
C         17.24751        29.96464         0.22199
C         19.00535         4.44992         2.87564
C         20.26597         6.63688         2.84531
C         19.11812         5.84030         2.46447
C         20.36167         7.95009         2.49158
C         19.40185         8.59887         1.62626
C         20.53682        10.76819         1.80395
C         19.48392         9.93448         1.28229
C         20.59102        12.10384         1.55453
C         19.53521        12.76432         0.82061
C         20.82724        14.97359         0.62518
C         19.57483        14.25447         0.79064
C         20.85414        16.33375         0.45043
C         19.67407        17.11132         0.22154
C         20.92848        19.27284         0.14737
C         19.72662        18.54670         0.04103
C         20.96381        20.64835        -0.08252
C         19.80748        21.37445        -0.38011
C         21.00445        23.58883        -0.05509
C         19.90341        22.84245        -0.75289
C         20.93631        24.92948         0.13170
C         19.74845        25.69273        -0.15301
C         20.92206        27.85668         0.21598
C         19.73752        27.11100         0.02350
C         20.88640        29.24977         0.38253
C         19.68711        29.94024         0.38582
O         17.33174         4.71834         0.25189
O          1.77823        26.44638        -0.25120
O          2.02006        13.16700        -1.01182
O          6.59111        19.02637        -2.36891
O          6.50515        10.16959        -2.86472
O         14.90417         8.62268        -1.44671
O          5.27019         7.78989        -2.76471
O         18.61909        14.79457         1.74848
O          4.87587         4.67216         0.32692
O         14.35843         4.92409         2.26200
O          3.87743        27.90158        -0.97467
O         12.11694        26.54709        -2.30892
O          5.27587        13.31210         0.63853
O          5.25265        16.76483        -2.32493
O          7.90586        16.79037         0.32051
O         10.65310        12.31008        -2.89736
O         16.76897        23.18622        -2.30792
O         16.40454        15.68203        -2.13120
O          2.52300        18.66889         1.98945
O          2.59621         9.63881         1.40633
O          5.21432        25.31657        -1.69195
O         11.37484        28.51545         0.82937
O         14.21400        21.11141         0.74136
O          3.24202        15.39726        -1.65824
O         12.97456         7.84559         1.78760
O         15.74429        28.26285         1.23014
O         10.40601        14.85741        -2.80237
O         15.58297        12.20392        -2.08007
O          8.31052        14.20844         0.29375
O         14.47053        27.79104        -2.10479
O         18.08727        12.77013        -1.89259
H         17.35355        12.90832        -2.54090
O          0.33614         7.83047        -1.78571
H          0.84936         7.39060        -2.49658
O         20.25419        22.83466        -2.18916
H         20.16986        23.75426        -2.52003
O         12.19225        30.38961        -2.22640
H         12.50213        29.58729        -2.69752
O         13.39965        12.00165         0.84359
H         13.24702        12.91106         1.17546
O          0.52637        20.70373        -0.33298
H          0.41310        21.65999        -0.51915
O         19.16928        10.26153        -1.05864
H         18.84069        10.94077        -1.69462
O         18.92967         7.25452        -0.27598
H         18.40213         6.48047        -0.57499
O          9.14524        10.45182        -3.46533
H          8.36151        10.70514        -3.99931
O         13.60332        10.63770        -2.52025
H         13.97094         9.78174        -2.83371
H          1.22148         2.12051        -0.77220
H         -0.93546         3.29033        -0.43533
H         -1.00989         5.77007        -0.23380
H         -0.80779         7.60501         0.79997
H         -0.55182         9.82801         1.68015
H         -0.50735        12.02686         1.75484
H         -0.48961        14.45318         1.77999
H         -0.64486        16.36415         1.48162
H         -0.73658        18.80258         1.43703
H         -0.19222        20.61406         2.57190
H         -0.00194        23.01886         2.99332
H         -0.30531        24.90947         2.73190
H         -0.20327        27.31633         3.10434
H          1.03256        29.42269         3.05407
H          3.49719         2.15464        -1.41440
H          2.98640        30.75738         2.35536
H          6.43486         2.26299        -1.38199
H          5.18843        30.88140         1.25273
H          8.64562         2.42445        -0.48231
H          7.39346        31.00978         0.32856
H         10.96243         2.51889         0.12752
H          9.71263        31.11706        -0.37779
H         13.15447         2.43875         0.35195
H         12.31402        31.17188        -0.31630
H         15.90575         2.37201         0.71133
H         14.69854        31.11228         0.07984
H         17.94101         2.60563         2.79374
H         17.27088        31.06448         0.24078
H         19.78375         4.04544         3.54011
H         21.04420         6.17507         3.46997
H         21.21938         8.52410         2.86752
H         21.31732        10.32321         2.43485
H         21.40740        12.71123         1.96838
H         21.76407        14.40021         0.57335
H         21.83401        16.82737         0.39200
H         21.86946        18.75870         0.38284
H         21.93779        21.15335        -0.03923
H         21.93289        23.06298         0.20611
H         21.80036        25.44429         0.57486
H         21.89914        27.35594         0.20699
H         21.83060        29.79702         0.51236
H         19.67457        31.03029         0.52717
