         272
 CSIRO Nanostructure Databank - Neutral Graphene Oxide Data Set
C        -11.14993         0.66320        -0.89562
C        -10.10486         1.49196        -0.28254
C         -8.84652         0.76749         0.22710
C         -7.55367         1.53515         0.44655
C         -6.23931         0.76632         0.35411
C         -4.96650         1.48808         0.04481
C         -3.82896         0.81579        -0.31166
C         -2.51521         1.45844        -0.74563
C         -1.23791         0.80186        -0.16874
C          0.05703         1.44436        -0.78684
C          1.35418         0.86886        -0.24240
C          2.60484         1.54987        -0.67396
C          3.88068         0.80968        -0.68347
C          5.17713         1.55345        -0.42374
C          6.34388         0.85825        -1.16561
C          7.62834         1.48901        -0.61598
C          8.69682         0.78346        -0.16669
C          9.70627         1.51808         0.70396
C         10.89252         0.66103         1.07394
C         -9.97418         2.89899        -0.63409
C         -8.83885         3.66242        -0.33313
C         -7.63315         3.09693         0.40620
C         -6.34620         3.66762        -0.23799
C         -5.08969         2.97342         0.30744
C         -3.60454         3.70240        -1.54855
C         -2.39016         2.90366        -1.24018
C         -1.17577         3.68905        -0.88969
C          0.10863         2.96309        -0.79179
C          1.37844         3.68673        -0.48230
C          2.64026         2.93907        -0.07476
C          3.89757         3.70549        -0.40251
C          5.06069         3.05042        -0.67430
C          6.35802         3.76670        -0.78078
C          7.63760         2.98963        -0.63531
C          8.82421         3.73582        -0.13096
C         10.07686         2.89669         0.10663
C         -8.82559         5.00825        -0.67978
C         -7.61584         5.90056        -0.69259
C         -6.32225         5.05500        -0.83447
C         -4.98829         5.75254        -1.00018
C         -3.74033         5.03241        -1.14293
C         -2.44436         5.83241        -1.10129
C         -1.21628         5.04213        -0.75509
C         -0.03743         5.79040        -0.21368
C          1.26278         5.08850         0.00648
C          2.54352         5.86123         0.20284
C          3.89239         5.09194         0.24199
C          5.05618         5.93296        -0.27982
C          6.34004         5.26177        -0.60169
C          7.65914         6.01827        -0.40467
C          8.79755         5.08031         0.01384
C         -7.55560         6.82794         0.52468
C         -6.69871         7.87039         0.45609
C         -4.89167         7.10692        -0.66785
C         -3.71639         7.71140        -0.11736
C         -2.49265         7.12490        -0.34343
C         -1.27059         7.87766        -0.12959
C         -0.04513         7.27450        -0.20730
C          1.23811         8.07608        -0.43380
C          2.50195         7.34015        -0.00112
C          3.79285         8.09788        -0.10552
C          5.05419         7.36722         0.09896
C          6.20811         7.99624         0.47550
C          7.49787         7.18683         0.61445
C         -6.28801         8.92312         1.38644
C         -5.03812         9.44543         1.39550
C         -3.72828         8.86028         0.88936
C         -2.70721         9.86337         0.41981
C         -1.41080         9.35425         0.01742
C         -0.10834        10.14343         0.23525
C          1.20467         9.44420         0.24621
C          2.34177        10.06859         0.66044
C          3.70701         9.53682         0.38300
C          4.93859        10.06141         0.99261
C          6.11406         9.36500         0.95016
C        -11.11416        -0.69454        -0.80287
C         -9.94666        -1.39941        -0.32878
C         -8.81016        -0.68312        -0.01637
C         -7.56425        -1.39371         0.34778
C         -6.26264        -0.70773         0.23233
C         -5.07730        -1.44142         0.02686
C         -3.85778        -0.68842        -0.39613
C         -2.57869        -1.46929        -0.49185
C         -1.21933        -0.78710        -0.44109
C         -0.31717        -1.54456         0.51650
C          1.52051        -0.32545         0.36878
C          2.50917        -1.30580        -0.19735
C          3.86263        -0.62287        -0.24957
C          5.10748        -1.40326        -0.40635
C          6.31994        -0.67510        -0.95585
C          7.59336        -1.40949        -0.75069
C          8.91991        -0.67990        -0.55701
C          9.83062        -1.46540         0.38346
C         10.88739        -0.68788         1.02660
C        -10.02612        -2.91823        -0.16565
C         -8.67058        -3.63232        -0.40662
C         -7.57611        -2.87601         0.31252
C         -6.26308        -3.56823         0.52609
C         -5.01861        -2.84643         0.18759
C         -3.82876        -3.68116        -0.13657
C         -2.51170        -2.99189        -0.36342
C         -1.20561        -3.72117        -0.06480
C         -0.08222        -2.87628         0.42405
C          1.24798        -3.45178         0.83199
C          2.53819        -2.70928         0.40648
C          3.71107        -3.52412        -0.06915
C          4.99406        -2.88641        -0.56648
C          6.20196        -3.50946        -0.74837
C          7.42469        -2.79789        -0.15619
C          8.74108        -3.60084        -0.32785
C          9.77476        -2.82392         0.47022
C         -8.64836        -5.11962        -0.07770
C         -7.54046        -5.79598         0.35279
C         -6.30420        -5.04476         0.74189
C         -4.99007        -5.79770         0.95113
C         -3.79561        -5.14823         0.23996
C         -2.48357        -5.88862         0.48405
C         -1.17153        -5.16865         0.38606
C         -0.04787        -5.67833         1.34114
C          1.32501        -4.92027         1.16992
C          2.72600        -5.65907         1.00088
C          3.53055        -4.99510        -0.12241
C          4.13190        -5.69376        -1.13257
C          6.66214        -4.73347        -1.47944
C          7.40287        -5.71138        -0.61627
C          8.49068        -5.06792         0.01019
C         -7.49087        -7.25859         0.39681
C         -6.31963        -7.96826         0.47908
C         -5.02798        -7.25134         0.52093
C         -3.75551        -7.99223         0.74377
C         -2.56593        -7.21006         1.29103
C         -1.25181        -8.00423         1.16357
C          0.02797        -7.23193         1.25607
C          1.29608        -7.93199         0.88062
C          2.56881        -7.16453         0.74597
C          3.57641        -7.89769        -0.08945
C          4.44703        -7.14145        -1.00932
C          5.85563        -7.66668        -1.35367
C          6.96371        -7.03868        -0.50491
C         -6.21245        -9.42240         0.39411
C         -5.05290       -10.10664         0.55422
C         -3.75530        -9.47841         1.02110
C         -2.47368       -10.05570         0.44381
C         -1.27109        -9.37135         0.55076
C         -0.02933        -9.95488         0.16448
C          1.24032        -9.32641         0.32079
C          2.42751       -10.00704         0.07282
C          3.80233        -9.36165         0.26422
C          4.90474        -9.92254        -0.61230
C          5.83740        -9.18367        -1.23360
O          1.39019        -3.89950         2.21645
O         -1.59685        -6.07408        -0.66080
O         -3.31934        -1.12053        -1.70546
O         -4.37536         3.51961         1.12956
O         -2.16778         6.21137        -2.57952
O          1.01872         3.46876        -1.87117
O          4.71258        -0.85858         0.90583
O         -5.98250         7.97066        -0.75400
O          0.56854        -0.79992         1.28661
O          9.60020        -0.64028        -1.83644
O         -2.32896         1.74869        -2.15826
O         -4.14102        -7.60746        -0.59833
O         -9.88106         1.19646         1.14992
O          3.30371        -7.88596        -1.55632
O          5.45065         5.79140        -1.67198
O          2.27170        -7.86705         1.98604
O          0.33587         5.22914         1.11760
O          4.16962         4.77965         1.58521
O         -0.50997        -7.92702         2.42273
O         -6.85636         1.15203         1.66885
O         -1.67425        -3.54274        -1.42560
O         -7.91046        -2.20335         1.57015
O          3.59112        -3.01708         1.34141
O          2.40320         6.77371         1.33762
O          3.22313         1.20266        -1.93523
O          6.74732        -4.73163        -2.70191
O         -6.54477         3.86953        -1.66444
O          7.17410         3.44826        -1.96109
O         -0.74120        10.14464        -1.06255
O         -4.09525        -4.75683        -1.11559
O          3.84649         9.18579        -1.04848
O         -6.43022        -4.14784         1.89783
O         -4.47447         3.03331        -2.32191
H         -4.01138         2.20653        -2.61815
O          9.17927        -3.50012        -1.71364
H          8.50134        -3.89031        -2.31168
O         -0.55077        -5.36988         2.65281
H          0.10655        -4.78212         3.09968
O          2.12506        -1.52713        -1.58305
H          1.19046        -1.23646        -1.74908
O          6.97860        -1.35157        -2.07341
H          9.66790        -1.57779        -2.14035
O          8.04049         6.61866        -1.65586
H          7.83753         5.97838        -2.37081
O          4.24408        -9.55904         1.61750
H          3.58970        -9.10652         2.20618
O          3.41774        -5.55728         2.24299
H          3.48369        -4.59419         2.45147
O          0.13148         1.07447        -2.17800
H          0.77879         1.68705        -2.60190
O          1.30155         8.27778        -1.86252
H          0.65218         8.98253        -2.08928
O         -3.69244        -9.66944         2.46368
H         -3.34315        -8.83678         2.87134
O         -0.63640        -1.09427        -1.71920
H         -1.31100        -0.92136        -2.41462
O         10.76495         2.71548        -1.13304
H         10.19489         2.18513        -1.72943
O         -7.71876         3.56871         1.75470
H         -7.34403         2.87142         2.34220
O          6.17161         1.09798        -2.55781
H          6.75158         0.46916        -3.04092
O         -7.76013         6.69262        -1.89105
H         -7.55842         6.11504        -2.65626
O          9.03791         1.83058         1.96009
H          8.70537         0.99563         2.35062
O         -3.23229         7.08999        -3.00495
H         -2.75497         7.93141        -3.20643
O          4.34802        -5.10606        -2.32568
H          4.90454        -5.68703        -2.89742
O         -2.76928        -7.02878         2.69394
H         -1.89664        -6.77530         3.08823
O          2.62092         2.72765         1.35734
H          3.08730         3.52114         1.77560
O        -10.47596        -3.18899         1.16280
H         -9.79427        -2.82626         1.77711
O          7.53010         6.60478         1.92250
H          7.22508         7.26673         2.57527
O         -4.75170        -5.81876         2.36437
H         -5.24294        -5.06346         2.76874
O          7.21359        -2.69833         1.26495
H          6.35185        -2.25903         1.44116
O         -3.16494         8.24043         2.10467
H         -3.18983         8.90191         2.82812
O          6.08348        -7.33200        -2.74510
H          5.54393        -7.94307        -3.28980
O          5.49825         1.50173         0.98371
H          4.76709         1.92939         1.48522
O         -8.35353        -3.51393        -1.82341
H         -8.80740        -4.23427        -2.30854
O         -1.30611         1.04875         1.23172
H         -0.49060         0.70779         1.66902
H         11.73891        -1.24826         1.44522
H         11.74108         1.17666         1.55008
H         10.77060         3.43094         0.80154
H          9.71337         5.58507         0.36310
H          8.37712         7.88259         0.48973
H          7.01928         9.82261         1.37874
H          4.89949        11.03650         1.50184
H          2.26592        11.06488         1.12916
H         -0.17175        11.11695         0.77164
H         -2.94674        10.92706         0.27781
H         -4.86877        10.28971         2.08803
H         -7.05333         9.38028         2.03464
H         -8.15260         6.60269         1.41737
H         -9.73556         5.43408        -1.13153
H        -10.78435         3.36943        -1.21249
H        -11.97988         1.16891        -1.41026
H        -11.95091        -1.29009        -1.19682
H        -10.79248        -3.32999        -0.87233
H         -9.54054        -5.69982        -0.36670
H         -8.44448        -7.79896         0.28921
H         -7.13166        -9.98025         0.15431
H         -5.06791       -11.20354         0.45701
H         -2.47549       -11.07055         0.01427
H         -0.04688       -10.98130        -0.23442
H          2.37437       -11.06030        -0.24682
H          4.99924       -11.02002        -0.63494
H          6.64099        -9.70088        -1.78247
H          7.46856        -7.70030         0.21693
H          9.18606        -5.62695         0.65697
H         10.49770        -3.36552         1.10062
