         732
 CSIRO Nanostructure Databank - Neutral Graphene Oxide Data Set
C         22.99673        24.49747        -0.48976
C         21.79763        25.17168        -0.32621
C         22.96616        27.30172        -0.15134
C         21.77849        26.56026        -0.13986
C         22.96248        28.75021         0.04202
C         21.79631        29.43958         0.40590
C         22.93004        31.59451         0.53291
C         21.81697        30.82411         0.72920
C         22.95529        33.03392         0.99984
C         21.76217        33.85606         0.54659
C         22.99897        35.90713         1.17762
C         21.76122        35.19116         0.66861
C         23.00518        37.41474         0.97419
C         21.81638        38.13049         1.15297
C         22.99343        40.23996         0.88334
C         21.80772        39.52201         1.09410
C         22.95850        41.71951         0.80403
C         21.83668        42.48252         1.36657
C         23.15799        44.56351         1.43837
C         21.92387        43.81915         1.58315
C         23.18368        46.00195         1.64492
C         22.00266        46.73502         1.82656
C         23.22632        48.82512         1.86249
C         22.03126        48.13031         1.95495
C         25.52781        23.08877        -0.33331
C         25.48117        24.48981        -0.65882
C         24.23149        25.19453        -0.49933
C         25.42718        27.36934        -0.39927
C         24.21042        26.62481        -0.36756
C         25.41611        28.80457        -0.24585
C         24.18528        29.47519        -0.06521
C         25.44074        31.63814         0.24894
C         24.13549        30.98347        -0.13000
C         25.42718        33.05461         0.52889
C         24.25343        33.75385         0.69139
C         25.48137        36.01248         0.74854
C         24.20236        35.25407         0.49300
C         25.48413        37.38922         0.71357
C         24.21704        38.12022         0.77136
C         25.48970        40.26960         0.69324
C         24.22159        39.54166         0.73183
C         25.52845        41.64942         0.79155
C         24.30273        42.45903         0.74622
C         25.61090        44.54862         1.19013
C         24.33935        43.87310         1.16565
C         25.63521        45.96006         1.42378
C         24.44323        46.69880         1.60387
C         25.66982        48.87235         1.45846
C         24.45563        48.14551         1.67205
C         25.73478        50.28006         1.28036
C         27.89506        22.47873        -0.81720
C         26.61185        22.23478        -0.23730
C         27.87824        24.69152        -1.32029
C         26.66060        25.27293        -0.88445
C         27.88565        27.41524        -0.61450
C         26.65399        26.69251        -0.64514
C         27.89945        28.83628        -0.39547
C         26.65172        29.54110        -0.26523
C         27.88683        31.72515        -0.14728
C         26.62926        30.95596        -0.01350
C         27.96233        33.10689         0.30746
C         26.72209        33.76089         0.72568
C         27.99475        35.98399         0.56785
C         26.74405        35.27159         0.86188
C         27.97793        37.39289         0.48892
C         26.73887        38.12509         0.63817
C         27.98920        40.24797         0.45912
C         26.74391        39.52318         0.63195
C         28.02504        41.64611         0.55175
C         26.82567        42.33678         1.15165
C         28.04808        44.52198         0.79302
C         26.80654        43.83258         0.98094
C         28.12343        45.90272         1.01782
C         26.94099        46.61760         1.50146
C         28.12047        48.83620         0.80985
C         26.94870        48.16578         1.50975
C         28.19317        50.32262         1.07468
C         26.93619        50.97620         1.20573
C         30.44661        20.50185         1.02355
C         29.24764        21.01699         0.67529
C         30.37895        22.45838        -0.97059
C         29.12440        21.92779        -0.45133
C         30.36055        24.69523        -1.42803
C         29.10533        25.36378        -1.22022
C         30.37302        27.36017        -0.60435
C         29.11529        26.72307        -0.78815
C         30.37917        28.75962        -0.31385
C         29.15366        29.48495        -0.28028
C         30.43407        31.66132         0.11156
C         29.21531        30.95970        -0.27790
C         30.42493        33.04824         0.27983
C         29.17552        33.79277         0.32142
C         30.41623        35.93466         0.21257
C         29.19704        35.24208         0.41964
C         30.42024        37.36883         0.08349
C         29.20009        38.09794         0.24898
C         30.42178        40.22971        -0.02462
C         29.20831        39.52093         0.20506
C         30.43115        41.66170        -0.07463
C         29.21571        42.38580         0.25396
C         30.38639        44.56268        -0.09359
C         29.22186        43.79143         0.36520
C         30.56794        45.96110         0.31499
C         29.42138        46.61185         0.95848
C         30.64924        48.83365         0.54542
C         29.43767        48.12171         1.00114
C         30.65227        50.24575         0.67021
C         29.43180        50.97722         0.99050
C         30.72799        53.04996         1.22725
C         29.53547        52.40350         1.20324
C         33.02930        19.08642         1.46438
C         32.97408        20.38668         0.82361
C         31.66659        20.76147         0.17181
C         32.86336        22.90260        -0.77960
C         31.60583        22.15638        -0.43326
C         32.86825        24.41301        -1.25726
C         31.57871        25.21761        -1.04333
C         32.82526        27.32075        -0.63015
C         31.59473        26.62233        -0.71108
C         32.81433        28.71935        -0.36087
C         31.62615        29.42867        -0.15615
C         32.93317        31.56230         0.50700
C         31.60377        30.78831         0.51845
C         32.93373        33.06413         0.57635
C         31.65390        33.80211         0.41927
C         32.87747        35.88382        -0.16847
C         31.63890        35.17944         0.22878
C         32.85297        37.35109        -0.46289
C         31.61275        38.09351        -0.19062
C         32.87805        40.21387        -0.47014
C         31.63777        39.50244        -0.23360
C         32.87609        41.63567        -0.48751
C         31.64489        42.33818        -0.33436
C         32.92735        44.53283        -0.51354
C         31.65249        43.79574        -0.50054
C         32.92865        45.95039        -0.40776
C         31.74155        46.65965         0.02558
C         33.00364        48.82416        -0.11315
C         31.80977        48.10883         0.19518
C         33.04108        50.23684         0.07972
C         31.88507        50.92890         0.52623
C         33.26953        53.11071         0.58971
C         31.98050        52.33384         0.95725
C         33.33744        54.58893         0.63676
C         35.46731        19.06507         1.34721
C         34.21092        18.42961         1.64452
C         35.40551        20.57900         1.22898
C         34.12675        21.07727         0.58200
C         35.38709        23.14381        -0.18486
C         34.14934        22.31681        -0.24169
C         35.34574        24.50210        -0.50906
C         34.09654        25.18987        -0.76257
C         35.31654        27.35211        -0.72042
C         34.07496        26.58854        -0.73601
C         35.33174        28.72257        -0.61293
C         34.07851        29.47594        -0.49305
C         35.46984        31.60026        -0.11176
C         34.14217        30.92278        -0.12004
C         35.51180        33.06351         0.06186
C         34.24458        33.80016         0.40233
C         35.42523        35.98439        -0.34738
C         34.20062        35.27377         0.14364
C         35.29921        37.37938        -0.82835
C         34.13246        38.08573        -0.60755
C         35.31897        40.23512        -0.91347
C         34.10157        39.51820        -0.68130
C         35.29819        41.65542        -0.95679
C         34.10201        42.35507        -0.73406
C         35.34840        44.51192        -0.91500
C         34.11687        43.80397        -0.71953
C         35.31965        45.93577        -0.92598
C         34.14429        46.66411        -0.65668
C         35.32166        48.83165        -0.95637
C         34.17544        48.11971        -0.59357
C         35.36102        50.27956        -0.87534
C         34.20779        50.99487        -0.32885
C         35.22379        53.16271        -1.01114
C         34.23815        52.37875        -0.23216
C         35.27452        54.65253        -0.89307
C         34.30288        55.29753         0.02245
C         37.87631        16.22917         1.49510
C         36.73335        16.93697         1.59368
C         37.93388        19.03203         1.04830
C         36.66864        18.36521         1.31672
C         37.93625        20.50145         0.92328
C         36.65262        21.20297         0.65644
C         37.92546        23.28430         0.16255
C         36.63140        22.48390         0.15464
C         37.83257        24.58901        -0.56101
C         36.59139        25.25159        -0.59919
C         37.78100        27.33051        -1.12351
C         36.58527        26.64319        -0.84851
C         37.70159        28.81736        -1.37549
C         36.66269        29.42333        -0.43055
C         37.82860        31.64287        -0.79317
C         36.60978        30.93241        -0.49937
C         37.84635        33.06063        -0.79991
C         36.67056        33.80105        -0.48327
C         37.83968        35.89020        -0.95407
C         36.65043        35.19850        -0.62617
C         37.83043        37.31361        -1.30889
C         36.50179        38.08657        -1.28222
C         37.79698        40.21851        -1.23479
C         36.54216        39.53898        -1.15821
C         37.81728        41.63310        -1.24775
C         36.52037        42.36242        -1.49483
C         37.81503        44.51084        -1.23091
C         36.56823        43.82273        -1.15733
C         37.83126        45.93676        -1.29202
C         36.52807        46.62430        -1.40245
C         37.81266        48.82108        -1.61029
C         36.49053        48.11993        -1.52493
C         37.78747        50.29686        -1.48320
C         36.49394        50.98055        -1.23522
C         37.74573        53.17473        -1.01984
C         36.46737        52.46013        -1.54700
C         37.73865        54.64972        -1.34444
C         36.55736        55.35500        -1.23721
C         37.75686        57.48108        -1.38873
C         36.55886        56.78032        -1.38061
C         40.45492        15.05887         2.25533
C         40.42590        16.26737         1.57266
C         39.15130        16.82252         0.96316
C         40.37377        18.98428         0.60424
C         39.12981        18.33687         0.97638
C         40.37571        20.30225         0.16502
C         39.22463        21.14669         0.43890
C         40.28967        23.04023        -0.74361
C         39.16253        22.48348        -0.16498
C         40.21468        24.43866        -1.22217
C         39.00650        25.23670        -0.96185
C         40.26238        27.33358        -1.39247
C         39.00992        26.63420        -1.24736
C         40.27082        28.82208        -1.67794
C         39.01509        29.54363        -1.25977
C         40.28114        31.65636        -1.55452
C         39.02614        30.90681        -1.13048
C         40.30150        33.09788        -1.13470
C         39.08031        33.78034        -0.99099
C         40.30764        35.93067        -1.02750
C         39.07547        35.20578        -0.97073
C         40.29763        37.36137        -1.04808
C         39.07650        38.07593        -1.17122
C         40.28287        40.21141        -1.14720
C         39.04452        39.48853        -1.19289
C         40.26884        41.62490        -1.18523
C         39.04303        42.33922        -1.22610
C         40.27951        44.50594        -1.10701
C         39.04975        43.79122        -1.23506
C         40.27596        45.94373        -1.05385
C         39.04418        46.65603        -1.23775
C         40.27459        48.79788        -1.19669
C         39.07339        48.09249        -1.31641
C         40.30180        50.25038        -1.17913
C         39.01272        50.99594        -0.93423
C         40.30997        53.16670        -1.21349
C         39.02226        52.43397        -1.51453
C         40.29582        54.60751        -1.23675
C         39.03866        55.34652        -1.68807
C         40.21817        57.53865        -1.10286
C         39.00376        56.82367        -1.34278
C         40.31066        58.93059        -1.13938
C         42.87382        15.13850         2.38861
C         41.67740        14.50622         2.68067
C         42.89151        16.37268         1.69610
C         41.64749        16.96144         1.31231
C         42.84282        18.94549         0.43506
C         41.62552        18.25774         0.70567
C         42.82549        20.24307        -0.14707
C         41.52859        20.82806        -0.65123
C         42.75539        22.98434        -1.20373
C         41.54621        22.33748        -0.84409
C         42.79158        24.43446        -1.37656
C         41.51707        25.17748        -1.47054
C         42.70376        27.34509        -1.05591
C         41.48487        26.65236        -1.32665
C         42.62930        28.76846        -0.55971
C         41.49210        29.54261        -1.15546
C         42.74451        31.64722        -0.87492
C         41.52437        30.90729        -1.14375
C         42.76570        33.05024        -0.91727
C         41.52517        33.79009        -1.02741
C         42.77370        35.92903        -0.87536
C         41.53326        35.21417        -0.97036
C         42.76709        37.34480        -0.86178
C         41.53435        38.07665        -0.98233
C         42.76612        40.21151        -0.89465
C         41.52479        39.48928        -1.04007
C         42.77659        41.61712        -0.93263
C         41.56162        42.36399        -1.41776
C         42.70365        44.49505        -0.66313
C         41.51192        43.81312        -1.01110
C         42.69340        45.94625        -0.55714
C         41.48623        46.65448        -0.86066
C         42.72396        48.78826        -0.81835
C         41.51444        48.08766        -0.95809
C         42.79845        50.23700        -1.25805
C         41.47760        50.96385        -1.10019
C         42.77710        53.11725        -1.11816
C         41.47597        52.42018        -1.08827
C         42.76032        54.63325        -1.01196
C         41.45232        55.31137        -0.96690
C         42.72961        57.50402        -0.48736
C         41.41644        56.76642        -0.70456
C         42.73301        58.93565        -0.80527
C         41.55927        59.60154        -1.03693
C         45.39407        16.45840         1.64977
C         44.13146        17.04743         1.37288
C         45.32634        18.98915         0.42398
C         44.10307        18.32173         0.74789
C         45.28770        20.28669        -0.17285
C         44.02299        20.91912        -0.44010
C         45.22878        22.65766        -1.58078
C         43.98493        22.19416        -1.10758
C         45.23752        24.72429        -1.70824
C         43.94888        25.24272        -1.39253
C         45.17355        27.31192        -0.77735
C         43.92288        26.65613        -1.06893
C         45.14628        28.73056        -0.35988
C         43.93396        29.51787        -0.62698
C         45.22492        31.63224        -0.57806
C         43.96779        30.90322        -0.67133
C         45.23599        33.05940        -0.67130
C         44.00413        33.77605        -0.79023
C         45.24251        35.91211        -0.65314
C         44.00659        35.19827        -0.78619
C         45.22207        37.34628        -0.57725
C         43.99877        38.06121        -0.70713
C         45.20583        40.20410        -0.49627
C         43.98466        39.48743        -0.67851
C         45.18372        41.63330        -0.41596
C         43.96780        42.33832        -0.63957
C         45.06312        44.44147         0.10910
C         43.90878        43.76446        -0.48668
C         45.00666        45.94507         0.31779
C         43.85209        46.67766        -0.22786
C         45.11662        48.82848        -0.16208
C         43.90238        48.10472        -0.39695
C         45.15361        50.27095        -0.31621
C         43.98212        50.99007        -0.68138
C         45.19764        53.12937        -0.45963
C         44.00607        52.39068        -0.71722
C         45.20493        54.58154        -0.45642
C         44.00041        55.32923        -0.59572
C         45.22070        57.39280        -0.21213
C         44.00457        56.72961        -0.46249
C         46.57507        17.08646         1.31237
C         47.81111        19.01065         0.29808
C         46.58350        18.36270         0.69173
C         47.75423        20.27577        -0.30404
C         46.51092        20.93840        -0.49337
C         47.69370        23.02741        -1.25931
C         46.49055        22.21615        -1.13377
C         47.66938        24.46632        -1.29707
C         46.44938        25.25830        -1.27669
C         47.64973        27.35027        -0.67080
C         46.40619        26.64311        -0.85016
C         47.70930        28.72211        -0.41697
C         46.45561        29.47654        -0.16719
C         47.66723        31.65699        -0.35298
C         46.43595        30.94785        -0.36669
C         47.71158        33.04280        -0.58274
C         46.47889        33.77174        -0.64230
C         47.71052        35.92889        -0.39929
C         46.47315        35.20407        -0.60580
C         47.68829        37.35028        -0.26158
C         46.44244        38.07326        -0.40648
C         47.72370        40.22549        -0.44965
C         46.42305        39.47773        -0.38020
C         47.62991        41.65428        -0.00076
C         46.40146        42.35793        -0.10810
C         47.56901        44.50149         0.31945
C         46.36260        43.74998         0.12405
C         47.55262        45.89868         0.38114
C         46.29000        46.69169         0.65521
C         47.53277        48.79602         0.21383
C         46.32692        48.12354         0.15046
C         47.56519        50.26113         0.27830
C         46.34451        51.00285        -0.06696
C         47.66236        53.12882        -0.07111
C         46.39720        52.41389        -0.17834
C         47.68104        54.54582        -0.16003
C         46.42984        55.27859        -0.25231
C         46.40856        56.68465        -0.13514
C         50.27257        19.03180         0.20883
C         49.11004        18.43887         0.58493
C         50.29685        20.22661        -0.65019
C         48.95615        20.90997        -0.87804
C         50.17351        23.07271        -1.23517
C         48.94826        22.36891        -1.11956
C         50.12900        24.48802        -1.32554
C         48.90231        25.16300        -1.21275
C         50.18165        27.39912        -0.96192
C         48.90320        26.59645        -0.81682
C         50.13505        28.87606        -0.89213
C         48.94550        29.45606        -0.43850
C         50.45679        31.82038        -1.49992
C         48.84744        30.85340         0.10280
C         50.31362        33.26668        -1.20870
C         48.97155        33.82612        -0.79620
C         50.15796        35.92867        -0.06707
C         48.94285        35.24344        -0.35773
C         50.10515        37.32826         0.23626
C         48.88708        38.04442         0.04628
C         50.03774        40.16129         0.52160
C         48.89197        39.47716         0.14043
C         50.04382        41.61872         0.55939
C         48.82085        42.33900         0.32687
C         50.05496        44.42984         0.53334
C         48.82021        43.76231         0.42459
C         50.07088        45.87408         0.22642
C         48.83890        46.64450         0.63845
C         50.11571        48.79351        -0.09694
C         48.81413        48.06113         0.09583
C         50.15589        50.25444         0.10274
C         48.88927        50.98508         0.29940
C         50.13281        53.11659         0.11940
C         48.89420        52.43945         0.07065
C         50.12240        54.52304        -0.02575
C         48.92898        55.21263        -0.15360
C         52.78973        20.39837        -0.60450
C         51.52800        21.04667        -0.78038
C         52.70949        23.16363        -1.25812
C         51.46781        22.39929        -1.11922
C         52.67307        24.53931        -1.46009
C         51.36162        25.21262        -1.81540
C         52.65986        27.48360        -1.36800
C         51.37317        26.72994        -1.57361
C         52.57936        28.87860        -0.90790
C         51.39686        29.59438        -0.99079
C         52.65110        31.73240        -0.43529
C         51.46452        31.05531        -0.95825
C         52.70002        33.13381        -0.30108
C         51.61172        34.01164        -0.88585
C         52.57158        35.89870         0.44925
C         51.41629        35.26829        -0.07351
C         52.50641        37.29071         0.78695
C         51.29634        38.01397         0.59689
C         52.44381        40.12044         1.09383
C         51.26475        39.43955         0.78044
C         52.41264        41.59495         1.39713
C         51.22594        42.31337         0.81928
C         52.53557        44.43743         0.71572
C         51.27166        43.72911         0.67226
C         52.59835        45.84694         0.53342
C         51.38600        46.57451         0.09063
C         52.58158        48.79666         0.55773
C         51.47893        48.07918        -0.16273
C         52.59466        50.17279         0.50745
C         51.35701        50.92226         0.26537
C         52.56734        53.00322         0.66614
C         51.37200        52.37053         0.35818
C         53.96538        21.06901        -0.78406
C         55.21107        23.12627        -1.27458
C         53.98689        22.46214        -1.12545
C         55.23357        24.54817        -1.64635
C         53.91414        25.30873        -1.71211
C         55.11279        27.43011        -1.06909
C         53.95511        26.76646        -1.38802
C         55.07632        28.75457        -0.39361
C         53.77635        29.51342        -0.33963
C         55.00010        31.58984         0.30248
C         53.80659        30.97127        -0.14393
C         54.97416        32.97865         0.60668
C         53.83340        33.75161         0.29744
C         54.93739        35.82829         1.17565
C         53.80605        35.17734         0.61819
C         54.86040        37.22290         1.49822
C         53.68622        37.96352         1.22743
C         54.86400        40.12890         1.45447
C         53.66203        39.40910         1.31105
C         54.90745        41.55748         1.30867
C         53.72454        42.29462         1.15598
C         54.95821        44.43770         1.10343
C         53.73832        43.72109         0.99148
C         54.99663        45.84896         1.01433
C         53.78391        46.55746         0.78743
C         55.06843        48.74216         0.82883
C         53.75972        48.03817         1.10880
C         55.08135        50.14721         0.74623
C         53.82535        50.90277         0.75585
C         53.77748        52.28355         0.83958
C         57.66959        23.14236        -1.04638
C         56.49969        22.46836        -1.16715
C         57.66645        24.61715        -0.74713
C         56.50308        25.31634        -1.43360
C         57.63975        27.48676        -0.64792
C         56.43992        26.79850        -1.18942
C         57.58421        28.81943        -0.25394
C         56.31392        29.52000        -0.13224
C         57.45045        31.42452         1.00112
C         56.23543        30.81882         0.33807
C         57.43505        32.93198         1.09508
C         56.11249        33.58769         1.39058
C         57.34174        35.71069         1.87465
C         56.17651        35.10266         1.40692
C         57.28544        37.12203         2.46867
C         56.01736        37.90875         2.09995
C         57.37143        40.10041         1.72112
C         56.06643        39.42965         1.91824
C         57.38100        41.53011         1.48245
C         56.18008        42.23005         1.38326
C         57.50371        44.44018         1.37014
C         56.17365        43.69823         1.45510
C         57.47827        45.86114         0.98289
C         56.26748        46.56201         0.97599
C         57.51608        48.67311         0.58883
C         56.27691        47.99781         0.78596
C         57.50425        50.08653         0.49603
C         56.32668        50.80355         0.58156
C         60.17788        24.76862        -1.18772
C         58.95436        25.38935        -0.96472
C         60.11659        27.54854        -0.69413
C         58.90532        26.80345        -0.76542
C         60.06343        28.94937        -0.32714
C         58.80895        29.54617        -0.01663
C         59.93296        31.59298         0.69424
C         58.75206        30.86630         0.48859
C         59.87004        32.88072         1.37182
C         58.60978        33.58842         1.45804
C         59.70030        35.30090         2.77847
C         58.55057        34.92303         2.03792
C         59.67860        37.63472         2.98583
C         58.54692        37.99435         2.28580
C         59.87554        39.98282         1.44218
C         58.53476        39.36473         1.79686
C         59.83740        41.46988         1.18191
C         58.65072        42.22300         1.31169
C         59.90732        44.27899         0.75715
C         58.70749        43.63230         1.13491
C         59.93116        45.73891         0.58367
C         58.72454        46.50391         0.68104
C         59.98492        48.54218         0.20214
C         58.74964        47.91614         0.48511
C         61.36577        25.52213        -1.20818
C         61.34103        26.88011        -0.93796
C         61.23289        29.73982        -0.20140
C         61.17096        31.02792         0.29223
C         60.98887        33.37617         2.03787
C         60.87794        34.54228         2.79779
C         60.80420        38.52190         3.21012
C         60.91019        39.66397         2.50423
C         61.02111        42.11204         0.80015
C         61.05665        43.48623         0.57058
C         61.12894        46.40958         0.30706
C         61.15233        47.79696         0.11881
O         51.94226        27.42121        -2.70803
O         36.24143        47.29082        -2.70398
O         49.58116        20.08747        -1.92452
O         49.32124        48.32037        -1.26079
O         48.19956        50.65953         1.57536
O         35.19171        33.47880         1.45600
O         34.59430        54.01495        -2.05105
O         45.24483        23.63387        -2.58476
O         49.82811        26.78854         0.32340
O         30.71009        44.29521        -1.50596
O         49.59327        31.28983         0.96987
O         54.23671        28.72016         0.82754
O         55.73758        38.80877         3.22879
O         37.93586        49.70158        -2.80249
O         28.53451        31.52832        -1.45120
O         54.60631        24.86380        -2.92850
O         35.01723        35.99988         1.10337
O         30.30221        23.42130        -1.98497
O         40.70186        24.66178        -2.58679
O         27.86732        23.40739        -1.88008
O         33.72042        22.07961        -1.66493
O         56.79304        26.21769        -2.51607
O         32.73936        36.34485        -1.55885
O         33.08085        32.22237         1.78992
O         44.66088        45.04681         1.43125
O         50.68053        46.01293        -1.09308
O         38.83286        21.15946         1.89715
O         26.81354        34.39590         2.05420
O         45.69707        28.99308         0.99433
O         49.46054        33.86581        -2.24614
O         42.96260        53.94439        -2.31250
O         59.78247        36.41419         3.61953
O         56.85370        44.20060         2.66454
O         33.05909        52.54958         1.92830
O         37.07651        37.57805        -2.54397
O         29.69403        47.37124         2.21067
O         27.17831        47.42548         2.72074
O         23.48274        42.24185        -0.45579
O         41.86849        57.12566         0.65487
O         33.87546        30.54713        -1.53255
O         41.33463        20.26724        -2.00905
H         42.07404        20.59203        -2.56662
O         23.12876        35.68885         2.61223
H         22.41245        36.18410         3.06187
O         26.96375        42.14792         2.61900
H         27.08619        41.18713         2.77856
O         52.21205        41.68762         2.86378
H         52.96747        41.22715         3.28953
O         37.13436        29.11117         0.91250
H         36.55331        29.56119         1.56080
O         57.35635        24.74200         0.68295
H         58.07378        24.30443         1.18760
O         57.18109        36.83934         3.88961
H         56.76896        37.63413         4.30265
O         40.30272        28.93670        -3.15406
H         39.41033        28.66924        -3.47438
O         38.08620        23.70650         1.56520
H         38.31181        22.88873         2.07853
O         27.84735        48.69341        -0.62458
H         27.11938        49.30939        -0.85539
O         39.21930        16.43325        -0.45316
H         38.43762        16.81691        -0.90384
O         37.63751        53.12375         0.42532
H         38.37282        53.64194         0.81304
O         39.04027        52.33911        -2.94502
H         38.14114        52.10786        -3.28002
O         33.04991        24.36365        -2.69454
H         33.56182        23.54320        -2.88888
O         36.35143        42.32183        -2.97019
H         35.56424        42.86455        -3.19176
O         40.23978        31.69748        -3.01483
H         40.28634        30.75537        -3.32643
O         51.90007        48.21419        -1.55461
H         51.20274        47.76080        -2.08501
O         60.34447        39.35070         0.20871
H         60.38845        38.38471         0.37006
O         51.26991        25.03726        -3.26299
H         51.86664        25.71097        -3.66718
O         53.59154        48.07256         2.57597
H         54.36342        47.61446         2.97261
O         55.80811        33.22405         2.81044
H         56.36756        33.79651         3.38118
O         41.71156        42.40781        -2.89670
H         41.65565        41.48415        -3.22364
O         36.42881        52.55070        -2.98931
H         35.70784        53.19097        -3.21497
O         31.32700        30.43448         1.91236
H         31.70680        31.16089         2.46423
O         31.57229        19.84829        -0.98153
H         32.26163        20.13688        -1.62029
O         35.35607        21.06043         2.62252
H         36.20127        20.80603         3.05142
O         52.13220        34.46905        -2.17623
H         51.36288        34.81914        -2.67933
O         57.36041        30.98903         2.41011
H         56.60026        31.48680         2.80445
O         38.86113        50.97767         0.50845
H         39.67547        51.34556         0.90967
O         43.05817        50.18053        -2.70329
H         42.89151        51.07526        -3.07155
O         48.02782        40.30111        -1.90275
H         48.85055        40.82730        -2.00006
O         49.51574        31.31325        -2.33024
H         49.03614        32.09525        -2.70702
O         22.89270        32.95860         2.45919
H         23.03192        33.88020         2.79813
O         23.98208        31.30506        -1.57962
H         24.69238        30.82403        -2.05751
O         23.93767        35.41887        -0.94147
H         24.58726        34.88258        -1.44300
O         37.28285        29.00029        -2.76020
H         36.35902        28.67649        -2.84135
O         48.98457        46.78534         2.08575
H         48.07886        46.97236         2.44725
O         39.14227        55.32326        -3.16104
H         38.27366        55.59831        -3.52322
O         42.33419        28.66803         0.88703
H         43.17887        28.47071         1.34814
O         46.27858        46.88073         2.12084
H         45.78843        46.10138         2.48374
H         22.97358        23.41159        -0.64959
H         20.85094        24.61413        -0.34070
H         20.80992        27.05800        -0.00113
H         20.85142        28.89733         0.54181
H         20.91552        31.26842         1.17618
H         20.87006        33.33398         0.16733
H         20.88013        35.77229         0.35609
H         20.87196        37.59801         1.33454
H         20.85201        40.05056         1.20591
H         20.90921        41.95770         1.63551
H         21.03932        44.33675         1.97797
H         21.02954        46.22889         1.86075
H         23.21557        49.91925         1.95395
H         21.09150        48.67798         2.11064
H         24.59431        22.68045         0.08311
H         24.80451        50.86488         1.29720
H         26.45913        21.28966         0.30570
H         26.89448        52.07396         1.22465
H         30.52227        19.84196         1.89922
H         28.34990        20.78077         1.26549
H         30.76996        54.11913         1.47684
H         28.62143        52.97336         1.41927
H         32.08783        18.55944         1.66981
H         32.64135        55.09976         1.31783
H         34.18828        17.38484         1.98315
H         34.37113        56.38380         0.18183
H         37.84382        15.14607         1.68144
H         35.81794        16.41793         1.90926
H         37.71726        58.57816        -1.33183
H         35.60654        57.32707        -1.37366
H         39.52826        14.50958         2.46800
H         39.42622        59.53372        -1.38531
H         43.81265        14.66982         2.71143
H         41.67956        13.55273         3.22667
H         43.68841        59.47187        -0.88658
H         41.58243        60.68445        -1.22567
H         45.44622        15.46993         2.12478
H         45.23736        58.48256        -0.07847
H         47.52188        16.57473         1.52976
H         47.33693        57.23874         0.05317
H         51.22257        18.62081         0.57930
H         49.16443        17.53177         1.20248
H         51.06508        55.08667        -0.02887
H         48.96904        56.30449        -0.26103
H         52.81611        19.32784        -0.36162
H         52.60601        54.09764         0.75551
H         54.91047        20.52327        -0.66888
H         54.69377        52.86097         1.02546
H         58.61199        22.57728        -1.00515
H         56.53543        21.37178        -1.24353
H         58.44383        50.63764         0.35872
H         56.36394        51.89841         0.50144
H         60.23483        23.68342        -1.34948
H         60.03583        49.62660         0.03985
H         62.32273        25.01821        -1.40164
H         62.28877        27.43407        -0.91033
H         62.21191        29.32516        -0.47632
H         62.09716        31.61108         0.38896
H         61.93560        32.82081         2.03471
H         61.72255        34.89617         3.40263
H         61.56412        38.22071         3.94452
H         61.77557        40.33099         2.62827
H         61.93443        41.51780         0.65738
H         62.00549        43.94152         0.25822
H         62.07394        45.85582         0.23349
H         62.10566        48.29727        -0.10050
