         269
 CSIRO Nanostructure Databank - Neutral Graphene Oxide Data Set
C        -11.04089         0.65849        -0.99535
C        -10.14945         1.47594        -0.06714
C         -8.82128         0.71571         0.05731
C         -7.53943         1.44969         0.19302
C         -6.29254         0.75784         0.68155
C         -5.11764         1.52533         1.21363
C         -3.90481         0.76489         1.69938
C         -2.61310         1.56040         1.76341
C         -1.28036         0.80923         1.73601
C          0.03839         1.59405         1.71352
C          1.41582         0.88521         1.39566
C          2.36016         1.66475         0.49419
C          3.55468         0.96831        -0.12657
C          4.90599         1.69969        -0.34365
C          6.15525         0.79217        -0.21070
C          7.48614         1.47399        -0.00766
C          8.69612         0.82670        -0.62181
C         10.01090         1.52278        -0.61852
C         11.24526         0.68358        -0.64179
C         -9.91583         2.87545        -0.59124
C         -8.76380         3.59635        -0.35109
C         -7.69567         2.91835         0.45978
C         -6.63943         3.59323         1.24578
C         -5.23344         3.02462         1.41388
C         -3.93186         3.79005         1.23709
C         -2.60500         3.07638         1.58546
C         -1.30488         3.86394         1.62211
C          0.03144         3.11044         1.75628
C          1.39496         3.87747         1.63430
C          2.43843         3.14865         0.76204
C          3.76346         3.81449         0.63086
C          5.01246         2.98273         0.52128
C          6.33778         3.65149         0.76315
C          7.60630         2.90747         0.42218
C          8.83958         3.68178         0.11086
C         10.14042         2.90959         0.00042
C         -8.59425         4.87801        -0.97719
C         -7.39141         5.62632        -1.09159
C         -6.08649         4.95011        -0.81796
C         -4.95114         5.73857        -0.23377
C         -3.74892         4.97114         0.28911
C         -2.45666         5.72074         0.27910
C         -1.30020         5.37997         1.23672
C         -0.00155         5.83745         0.55599
C          1.28334         5.32252         1.12215
C          2.56243         6.00262         0.75427
C          3.85053         5.25976         1.02120
C          5.16227         5.94430         0.86567
C          6.47521         5.16581         0.97631
C          7.68778         5.85957         0.39749
C          8.86452         5.04275         0.15049
C         -7.34089         6.93581        -1.56362
C         -6.21701         7.87433        -1.17227
C         -4.91838         7.17451        -0.70969
C         -3.57539         7.70882        -1.11409
C         -2.39552         7.06174        -0.46023
C         -1.25985         7.97941        -0.01798
C          0.03426         7.18381        -0.10498
C          1.31980         7.92370        -0.39963
C          2.60763         7.19861        -0.14452
C          3.89808         7.96022        -0.21124
C          5.18362         7.24197         0.11512
C          6.47262         8.01582         0.06104
C          7.71819         7.26097         0.34290
C         -5.95263         9.10674        -2.00337
C         -4.77152         9.74183        -2.04855
C         -3.43763         9.06576        -1.83481
C         -2.27829         9.88974        -1.30121
C         -1.20021         9.34196        -0.69947
C          0.01408        10.16854        -0.28988
C          1.34638         9.41432        -0.35509
C          2.51361        10.10412        -0.20983
C          3.85977         9.47103        -0.28416
C          5.13933        10.14330         0.06413
C          6.32791         9.48996         0.12210
C        -10.97608        -0.68328        -1.05199
C        -10.04783        -1.46929        -0.19590
C         -8.91566        -0.72748         0.44366
C         -7.67956        -1.44590         0.93995
C         -6.37621        -0.69957         1.07097
C         -5.06099        -1.40752         1.11709
C         -3.90335        -0.71258         1.36249
C         -2.58260        -1.32679         0.98994
C         -1.30645        -0.67247         1.47273
C          0.00849        -1.37802         1.23697
C          1.28054        -0.60151         0.99306
C          2.35704        -1.31460         0.15335
C          3.51657        -0.52519        -0.51459
C          4.86204        -1.31518        -0.58318
C          6.13311        -0.54657        -0.49768
C          7.38559        -1.34292        -0.75548
C          8.68419        -0.66123        -0.44890
C          9.96488        -1.42692        -0.40899
C         11.22443        -0.66025        -0.59582
C         -9.91748        -2.93489        -0.34879
C         -8.85254        -3.61354         0.12999
C         -7.68107        -2.94902         0.77447
C         -6.35787        -3.65847         0.68426
C         -5.06425        -2.89907         0.93372
C         -3.76791        -3.57548         0.58806
C         -2.54359        -2.72345         0.42105
C         -1.23073        -3.45960         0.22467
C          0.01513        -2.78609         0.69573
C          1.29333        -3.55024         1.08139
C          2.41667        -2.82035         0.26784
C          3.75741        -3.50325         0.22850
C          4.93174        -2.84009        -0.43755
C          6.19690        -3.72265        -0.72795
C          7.44391        -2.84383        -0.85858
C          8.75717        -3.56244        -0.78695
C          9.92151        -2.88798        -0.66593
C         -8.88021        -5.12613         0.21277
C         -7.54484        -5.78442        -0.09878
C         -6.30360        -4.91368        -0.21464
C         -5.03328        -5.72178         0.00695
C         -3.76181        -4.92549        -0.08268
C         -2.47972        -5.63607        -0.38615
C         -1.13037        -4.96036        -0.18324
C         -0.08916        -5.76371         0.59584
C          1.24507        -5.06690         0.81940
C          2.53817        -5.76737         0.54676
C          3.82385        -4.96523         0.53648
C          5.13017        -5.73467         0.49550
C          6.41888        -5.02872         0.05538
C          7.69463        -5.86359        -0.31432
C          8.73479        -5.03988        -1.13616
C         -7.51324        -7.11775        -0.28996
C         -6.29462        -7.91352        -0.69642
C         -5.01306        -7.16516        -0.35730
C         -3.74245        -7.87612        -0.72296
C         -2.44927        -7.13527        -0.62842
C         -1.32876        -7.96578        -0.00027
C         -0.06165        -7.24574         0.41028
C          1.17569        -7.82797        -0.37812
C          2.54333        -7.10649        -0.12587
C          3.85556        -7.88860        -0.00532
C          5.00273        -7.19018         0.54402
C          6.62283        -8.14682        -0.53328
C          7.35015        -7.14324        -1.07403
C         -6.18025        -9.25560         0.00455
C         -5.00404        -9.88464         0.14136
C         -3.72105        -9.40186        -0.50377
C         -2.42863        -9.74610         0.28566
C         -1.16093        -9.39104        -0.45970
C          0.02743       -10.05305        -0.46620
C          1.30044        -9.34145        -0.36568
C          2.48570       -10.00453        -0.32966
C          3.85491        -9.42042        -0.04129
C          4.91121        -9.90697        -1.02531
C          6.12240        -9.34153        -1.21701
O         -3.01010        -7.49665        -1.92628
O          5.63516         2.92492         1.82421
O          4.67064        -2.22417        -1.71848
O          6.10387        -5.11681         1.43763
O          7.10177         5.44382         2.22169
O          3.44600        -7.16933        -1.22781
O          6.13782        -7.93825         0.82856
O         -7.16306        -3.74228         1.89003
O          9.20667         1.40539        -1.85350
O          4.50301         5.84243         2.17369
O        -10.09975        -1.04172         1.23332
O          2.82362         3.80361        -0.48732
O         -5.20781         1.14668        -0.21329
O          2.00514         7.18179        -1.46374
O         -3.37926         1.18570         2.96408
O         -5.86887         3.81405        -1.22064
O         -7.95970         0.94923        -1.10930
O         -7.73322         2.94882         1.96368
O          1.88743        -2.21811        -0.91405
O         -5.03501        -6.72182         1.05120
O         -2.69788         6.78605        -1.85036
O          5.95680         7.23147        -1.11959
O          0.08940         2.32208         2.96697
O         -0.31110        -6.65039         1.73111
O          4.01029         8.64832        -1.48334
O         -2.63699        -1.57980        -0.46989
O          7.82873         1.81236         1.38222
O         -4.65033         3.79494         2.51282
O          7.36690        -2.00259        -2.06676
O         -2.09653         3.68904         2.81948
O         -4.25151        -3.59134         1.95419
O         -0.08646         5.94777        -0.88092
O         -0.37180        -2.73939        -0.69862
O         -2.71555         4.63203        -0.66745
O         -7.23872        -0.93883         2.23263
O         -3.21815        -4.89978        -1.43641
O          1.96462        -5.80230         1.87496
O          0.97545        -1.22740         2.28140
O          2.40629         1.49145        -0.91933
O         -1.32443        -0.16972         2.82604
O         -2.08676        -8.59712         1.16975
O          0.85934        -7.43361        -1.66487
O          1.87954         6.29838         2.03057
O         -6.24364        -4.41662        -1.58321
O          9.24551        -1.05831         0.84088
O         -5.13163         6.85079         0.70432
O          3.96239        -3.97298         1.59887
O         -1.51291         8.35149         1.31363
O          3.18041        -0.40025        -1.91792
H          2.90418        -1.28580        -2.24611
O          0.10129        11.36705        -1.05550
H          0.32975        11.13151        -1.97805
O          1.95658         3.91578         2.94603
H          2.12016         4.85833         3.18984
O         10.64460         2.73399         1.33441
H          9.91954         2.35153         1.87858
O         -9.29192        -5.48782         1.53782
H         -8.64521        -5.08757         2.16362
O        -10.78130         1.58998         1.22095
H        -10.83353         0.67842         1.59908
O         -0.52559        -4.99015        -1.49121
H         -1.15017        -4.58519        -2.13124
H         -5.32341        -4.48195        -1.92301
O          1.48212        -3.43729         2.48604
H          2.03537        -4.19811         2.78286
O         -6.36586        -8.14091        -2.12131
H         -6.54515        -7.28651        -2.56571
O         -3.62357       -10.05701        -1.78194
H         -3.22960        -9.41006        -2.41154
O          5.95741        -4.27298        -2.05389
H          5.74771        -3.50053        -2.63577
O          2.17276         0.89738         2.61717
H          1.61850         0.50909         3.33025
O         -6.87022         8.45248         0.00765
H         -6.65239         7.86727         0.77414
O          4.94381         2.14957        -1.71109
H          4.02660         2.10487        -2.06896
O         -1.41100         6.12031         2.44665
H         -1.96672         5.60606         3.07724
O         -6.72755         4.97066         1.44153
H         -6.14100         5.18875         2.20349
O         -3.04376         8.80996        -3.21742
H         -2.48708         7.99334        -3.20896
O          8.34966        -6.20585         0.90901
H          7.66411        -6.34480         1.60193
O          8.49281        -5.17166        -2.53584
H          7.62525        -4.74250        -2.73683
O          4.22066        -9.88274         1.27919
H          5.15509        -9.62811         1.44936
H         12.16421        -1.22998        -0.65293
H         12.20689         1.21310        -0.71977
H         10.89680         3.51203        -0.56398
H          9.81357         5.56530        -0.04859
H          8.67798         7.76194         0.13375
H          7.23597        10.06343         0.36376
H          5.12356        11.23220         0.22509
H          2.46417        11.19913        -0.09886
H         -0.15276        10.47480         0.77864
H         -2.19931        10.92412        -1.67557
H         -4.72260        10.72443        -2.54373
H         -6.85728         9.63890        -2.33725
H         -8.28290         7.42217        -1.86944
H         -9.50806         5.33926        -1.38898
H        -10.70620         3.32638        -1.21361
H        -11.77186         1.19467        -1.62009
H        -11.64186        -1.24389        -1.72579
H        -10.75847        -3.48551        -0.79813
H         -9.65874        -5.51956        -0.48968
H         -8.46081        -7.67641        -0.21714
H         -7.09201        -9.69148         0.44135
H         -4.96401       -10.85504         0.66112
H         -2.46661       -10.71683         0.83085
H          0.04515       -11.15427        -0.45684
H          2.46968       -11.10403        -0.40554
H          4.65550       -10.79266        -1.62721
H          6.78124        -9.75667        -1.99605
H          7.73991        -7.24089        -2.09945
H          9.73934        -5.48217        -0.93157
H         10.87747        -3.43185        -0.71791
