         630
 CSIRO Nanostructure Databank - Neutral Graphene Oxide Data Set
C         23.03663        27.34073        -0.63168
C         23.02807        28.71616        -0.62030
C         23.00218        31.63888        -0.50616
C         23.00016        33.02236        -0.62154
C         22.99812        36.04198        -0.84852
C         23.07330        37.39761        -0.89469
C         23.22900        40.34512        -1.10736
C         23.27223        41.69866        -1.19078
C         22.94187        44.54436        -0.54943
C         23.04373        45.82599        -0.97572
C         25.39627        24.49787        -0.17792
C         24.23296        25.19746        -0.41348
C         25.42486        27.31992        -0.03025
C         24.22589        26.61518        -0.35082
C         25.38335        28.74443        -0.00468
C         24.20526        29.45214        -0.30494
C         25.40757        31.64703        -0.14732
C         24.20152        30.91767        -0.30759
C         25.41107        33.07157        -0.27559
C         24.19774        33.75678        -0.56106
C         25.51062        35.96806        -0.49518
C         24.21362        35.21364        -0.82694
C         25.43250        37.40487        -0.24081
C         24.30199        38.13406        -0.64183
C         25.48772        40.27509        -0.11785
C         24.33016        39.56763        -0.60711
C         25.47629        41.66682        -0.00053
C         24.45057        42.50082        -0.73450
C         25.31662        44.59317         0.30725
C         24.05791        43.75453         0.09160
C         25.39870        46.00957        -0.14244
C         24.25755        46.59675        -0.86918
C         25.58422        48.60401        -1.20590
C         24.38233        47.87714        -1.37163
C         27.92432        22.95647         0.08491
C         27.82392        24.38265         0.42880
C         26.60437        25.16802         0.13860
C         27.90466        27.27683         0.35724
C         26.64185        26.58063         0.20645
C         27.90590        28.74590         0.51877
C         26.59407        29.49757         0.36523
C         27.86495        31.60504         0.21749
C         26.65157        30.94620         0.11254
C         27.86460        33.08428         0.46593
C         26.63624        33.79668        -0.04698
C         27.91275        35.87729         0.17341
C         26.67671        35.18444        -0.04219
C         27.91738        37.29355         0.49219
C         26.57335        38.08869         0.36265
C         27.89627        40.17286         0.52144
C         26.66879        39.54015         0.28398
C         27.91956        41.62071         0.93968
C         26.59575        42.35951         0.67309
C         27.90136        44.56701         0.47965
C         26.59913        43.86481         0.62649
C         27.89449        45.98291         0.14212
C         26.72277        46.66210        -0.21947
C         27.95947        48.79869        -0.49606
C         26.73459        48.03595        -0.64675
C         27.98771        50.20370        -0.62984
C         30.38504        23.00739         0.19510
C         29.11900        22.31242         0.09931
C         30.39933        24.41789         0.22711
C         29.15966        25.15233         0.49523
C         30.38887        27.32854         0.29653
C         29.12787        26.61736         0.34596
C         30.39134        28.78429         0.23920
C         29.15789        29.49186         0.30543
C         30.35250        31.62940         0.05251
C         29.12940        30.89984         0.23679
C         30.34683        33.06979        -0.02582
C         29.14334        33.77708         0.07939
C         30.38182        35.92706         0.02915
C         29.14335        35.19280         0.06416
C         30.36883        37.33685         0.18378
C         29.16882        38.05347         0.39482
C         30.37710        40.23215         0.35333
C         29.13510        39.47249         0.51608
C         30.35211        41.69706         0.33189
C         29.14941        42.39829         0.50711
C         30.40255        44.58062         0.68291
C         29.09876        43.83588         0.49583
C         30.36927        46.01277         0.21965
C         29.16008        46.69183         0.05227
C         30.38479        48.83972        -0.10579
C         29.16406        48.11078        -0.19211
C         30.38454        50.26461        -0.19094
C         29.16089        50.92050        -0.45144
C         32.91847        20.25177         0.55332
C         31.69697        20.90626         0.41723
C         32.87594        23.00137        -0.24684
C         31.61964        22.28454         0.16573
C         32.84787        24.48736        -0.00617
C         31.62538        25.16409         0.12864
C         32.87333        27.31881         0.26341
C         31.58680        26.60555         0.23138
C         32.88567        28.84430         0.19666
C         31.58933        29.52157         0.09187
C         32.80593        31.66255        -0.34538
C         31.58088        30.93614        -0.05843
C         32.78144        33.04885        -0.46440
C         31.57523        33.78710        -0.23348
C         32.85269        35.93073        -0.29588
C         31.59794        35.20546        -0.17110
C         32.87662        37.34877        -0.15075
C         31.66464        38.06515         0.40703
C         32.76185        40.26566        -0.31082
C         31.55007        39.54138         0.10304
C         32.81319        41.71763        -0.09104
C         31.60339        42.41644         0.15698
C         32.83586        44.53217         0.04221
C         31.63325        43.83379         0.22928
C         32.84231        45.98635         0.06113
C         31.60831        46.70848         0.11529
C         32.85094        48.83867         0.05130
C         31.61678        48.12806         0.02122
C         32.84838        50.27443         0.13057
C         31.62054        50.98926         0.00792
C         32.83753        53.08243         0.31207
C         31.65586        52.40307         0.08635
C         35.47333        18.93633         1.16749
C         35.41692        20.29770         0.82182
C         34.15772        20.95842         0.51683
C         35.36350        23.07800         0.15200
C         34.14813        22.33420         0.21936
C         35.32567        24.45823        -0.13585
C         34.09272        25.19424        -0.11609
C         35.32019        27.35418        -0.24740
C         34.09838        26.60383        -0.10115
C         35.30332        28.81774        -0.41479
C         34.09901        29.54125        -0.28685
C         35.24864        31.61780        -0.92434
C         34.05686        30.93289        -0.54324
C         35.27388        33.07053        -0.97768
C         33.95568        33.79687        -1.04378
C         35.27466        35.92984        -0.72471
C         34.03916        35.24216        -0.62081
C         35.29597        37.35016        -0.58976
C         34.07067        38.03897        -0.35301
C         35.32701        40.23852        -0.34701
C         34.06233        39.51279        -0.48017
C         35.31140        41.66162        -0.25405
C         34.05490        42.38345        -0.17441
C         35.30457        44.49669        -0.22603
C         34.07189        43.81163        -0.11926
C         35.28352        45.95671        -0.38122
C         34.04272        46.69675        -0.09492
C         35.32022        48.83452         0.06290
C         34.07044        48.11767        -0.01208
C         35.30903        50.23326         0.34144
C         34.06980        50.97131         0.33961
C         35.29301        53.10583         0.73853
C         34.07277        52.39848         0.46490
C         35.36056        54.49389         0.90694
C         37.89696        19.01120         1.46440
C         36.67887        18.30926         1.47127
C         37.87956        20.40162         1.12488
C         36.63909        21.04437         0.78367
C         37.84312        23.16536         0.41148
C         36.62299        22.42072         0.42858
C         37.84588        24.54848         0.07296
C         36.59141        25.17555        -0.48758
C         37.76561        27.42896        -0.29542
C         36.51113        26.66080        -0.28481
C         37.71763        28.72537        -1.02171
C         36.46487        29.50114        -0.87032
C         37.66666        31.58309        -1.63376
C         36.44169        30.88135        -1.14201
C         37.66269        33.11147        -1.73037
C         36.45186        33.77746        -1.11919
C         37.72509        35.91779        -1.12426
C         36.49765        35.22317        -1.00811
C         37.75380        37.36455        -0.92578
C         36.53055        38.06705        -0.67396
C         37.77806        40.17455        -0.36726
C         36.54888        39.49304        -0.44725
C         37.79547        41.59508         0.11959
C         36.53400        42.37582        -0.17224
C         37.78909        44.53199        -0.06801
C         36.55014        43.80039        -0.18546
C         37.84267        45.94924        -0.11937
C         36.59416        46.71027        -0.36666
C         37.77043        48.84788         0.07094
C         36.55658        48.14864        -0.03112
C         37.74424        50.24656         0.31282
C         36.53621        50.91651         0.51873
C         37.82031        53.08586         0.91178
C         36.52913        52.31344         1.08369
C         37.81124        54.48918         1.16847
C         36.56006        55.15919         1.18729
C         40.41545        16.32672         2.31724
C         39.22394        16.95377         2.02811
C         40.34502        19.11809         1.85307
C         39.15719        18.35846         1.78658
C         40.32189        20.53517         1.55264
C         39.08758        21.15334         1.13925
C         40.29542        23.26783         0.71341
C         39.07536        22.53288         0.77593
C         40.27963        24.63074         0.33525
C         39.03875        25.26969         0.07998
C         40.31358        27.39802        -0.57134
C         39.06088        26.73397        -0.14009
C         40.30611        28.71774        -1.00802
C         39.02236        29.38411        -1.34731
C         40.25576        31.62003        -1.45940
C         38.98987        30.85994        -1.62567
C         40.23174        33.04687        -1.43309
C         38.98708        33.77506        -1.38674
C         40.21973        35.90450        -1.50419
C         38.95785        35.17265        -1.30031
C         40.22711        37.44175        -1.32467
C         38.96906        38.09557        -0.92236
C         40.24047        40.20949        -0.52886
C         39.00653        39.49231        -0.58856
C         40.26699        41.63516        -0.35273
C         39.06257        42.32948        -0.20840
C         40.36577        44.50052         0.15768
C         39.03950        43.76499         0.10614
C         40.36988        46.02594         0.24059
C         39.03649        46.68839        -0.03012
C         40.23183        48.84653        -0.12559
C         39.03458        48.12980        -0.05443
C         40.27027        50.31926        -0.09080
C         38.98517        51.03415         0.18249
C         40.27979        53.09019         0.76626
C         39.02294        52.42165         0.67658
C         40.27393        54.47864         1.07474
C         39.06878        55.18100         1.29421
C         40.26906        57.18795         2.07434
C         39.10857        56.53225         1.81112
C         42.86815        16.44764         2.70739
C         41.62583        17.06741         2.39191
C         42.79726        19.21723         2.25951
C         41.59136        18.47259         2.15956
C         42.72740        20.68296         2.16735
C         41.49120        21.29704         1.64568
C         42.74166        23.31868         0.98164
C         41.53690        22.64366         1.13546
C         42.76082        24.58515         0.22334
C         41.50686        25.35713         0.08987
C         42.79967        27.27269        -0.95522
C         41.53270        26.66127        -0.39042
C         42.77397        28.78471        -1.03681
C         41.53367        29.46514        -1.19804
C         42.71653        31.62950        -1.59341
C         41.46286        30.88594        -1.38783
C         42.72781        33.08834        -1.41745
C         41.48705        33.77174        -1.35477
C         42.71298        35.91529        -1.35163
C         41.49798        35.19595        -1.36833
C         42.70959        37.36226        -1.23703
C         41.51326        38.06970        -1.05414
C         42.66664        40.27569        -1.16939
C         41.55339        39.47751        -0.51225
C         42.72962        41.71599        -0.91461
C         41.52762        42.38908        -0.48219
C         42.69062        44.53767        -0.95503
C         41.54668        43.77305        -0.32732
C         42.78551        45.98235        -0.54429
C         41.49112        46.68537        -0.54474
C         42.76014        48.93969        -0.50228
C         41.46768        48.18169        -0.55816
C         42.75982        50.30241         0.08869
C         41.54857        51.00430         0.22349
C         42.77483        53.01500         0.90583
C         41.52638        52.37173         0.61072
C         42.80392        54.40617         1.23382
C         41.56121        55.18729         1.12412
C         42.80726        57.10709         2.26687
C         41.56153        56.63814         1.65493
C         44.02851        17.18242         2.78772
C         45.26418        19.34967         2.53060
C         44.02846        18.59525         2.56814
C         45.28535        20.70836         2.12556
C         44.01813        21.47030         2.16358
C         45.28567        23.42464         1.12624
C         43.99281        22.93476         1.73961
C         45.29996        24.69395         0.55583
C         44.06203        25.29713         0.02760
C         45.25104        27.42917        -0.34411
C         44.05780        26.72470        -0.32244
C         45.24228        28.82970        -0.72740
C         44.01041        29.46453        -1.05132
C         45.25551        31.66534        -1.21552
C         44.03955        30.87948        -1.44755
C         45.22203        33.07796        -1.31638
C         43.96395        33.78617        -1.38234
C         45.20051        35.93061        -1.27595
C         43.96324        35.21651        -1.33191
C         45.19735        37.36893        -1.24623
C         43.97275        38.05194        -1.21991
C         45.22647        40.25454        -1.28211
C         43.96634        39.51131        -1.39255
C         45.19355        41.64718        -1.23489
C         43.96727        42.38920        -1.07654
C         45.19822        44.53889        -0.80630
C         44.00847        43.81555        -0.90786
C         45.22835        45.93754        -0.50665
C         43.97730        46.65740        -0.47362
C         45.26323        48.77489         0.09104
C         44.03857        48.14076        -0.43776
C         45.22595        50.14673         0.47140
C         43.99602        50.89918         0.46839
C         45.21414        52.90637         1.27270
C         43.99011        52.26821         0.88850
C         45.21927        54.28074         1.64502
C         43.99428        55.03706         1.63340
C         43.95058        56.38138         2.17457
C         47.70708        19.33957         2.62658
C         46.52580        18.74555         2.91035
C         47.75798        20.50897         1.68121
C         46.49422        21.34914         1.75755
C         47.73914        23.38860         1.03548
C         46.50976        22.70785         1.32149
C         47.73338        24.74031         0.69701
C         46.51651        25.41807         0.39279
C         47.73589        27.49651        -0.19003
C         46.50688        26.77963        -0.02302
C         47.71552        28.86960        -0.58606
C         46.46898        29.54788        -0.78491
C         47.70134        31.67732        -1.09327
C         46.46514        30.96717        -1.00438
C         47.69921        33.10244        -1.26827
C         46.45444        33.80383        -1.28584
C         47.67853        35.95321        -1.31622
C         46.44079        35.23163        -1.29580
C         47.68399        37.37784        -1.30095
C         46.44819        38.09728        -1.26606
C         47.70660        40.21923        -1.11133
C         46.46314        39.51929        -1.23694
C         47.72525        41.63987        -1.05581
C         46.47606        42.37477        -1.30875
C         47.72893        44.52992        -0.63712
C         46.48357        43.86895        -1.06058
C         47.68580        45.90516        -0.34389
C         46.45502        46.61882        -0.28443
C         47.67464        48.64526         0.54735
C         46.45824        48.02489         0.10811
C         47.64201        50.01621         0.99901
C         46.43300        50.76911         0.92704
C         47.63580        52.76631         1.74431
C         46.42893        52.14803         1.31262
C         47.61789        54.15218         2.06427
C         46.45552        54.88272         2.01000
C         50.31442        20.58412         1.59759
C         49.03197        21.35755         1.84657
C         50.30245        23.36740         1.05679
C         49.01467        22.58176         0.91277
C         50.29285        24.82972         0.92668
C         48.97708        25.53592         0.71071
C         50.21356        27.52807        -0.13802
C         48.98534        26.87096         0.09182
C         50.20753        28.87705        -0.62567
C         48.94753        29.56419        -0.78730
C         50.12821        31.64730        -1.50733
C         48.91111        30.95023        -1.08788
C         50.16800        33.11282        -1.48627
C         48.92965        33.81722        -1.38229
C         50.13814        35.96595        -1.54024
C         48.91861        35.25237        -1.40232
C         50.17367        37.37443        -1.41946
C         48.93267        38.07547        -1.28837
C         50.17571        40.15709        -0.91129
C         48.94329        39.48783        -1.11850
C         50.11424        41.55494        -0.46204
C         48.90360        42.35244        -0.74403
C         50.18096        44.45257        -0.26368
C         48.93170        43.76515        -0.57202
C         50.18867        45.85187        -0.06666
C         48.97037        46.68708        -0.35013
C         50.12027        48.53830         0.89974
C         48.91419        47.96256         0.44828
C         50.04424        49.77404         1.75942
C         48.83022        50.63083         1.47792
C         50.06761        52.58052         2.31387
C         48.83832        51.98606         1.85091
C         51.45277        21.22517         1.26970
C         52.75327        23.40318         0.97548
C         51.49561        22.68372         1.10612
C         52.74559        24.78722         0.59247
C         51.52537        25.50491         0.49792
C         52.71317        27.51469        -0.22480
C         51.47964        26.84562         0.05863
C         52.68820        28.89359        -0.67930
C         51.43889        29.53484        -0.87373
C         52.68810        31.68154        -1.39850
C         51.45153        30.89211        -1.43702
C         52.65356        33.07657        -1.60976
C         51.39965        33.77064        -1.65769
C         52.68873        35.99395        -1.92431
C         51.36851        35.22898        -1.87008
C         52.67697        37.43498        -1.56504
C         51.43055        38.09218        -1.35902
C         52.66925        40.19360        -0.83367
C         51.41844        39.48387        -1.01737
C         52.67768        41.56731        -0.49633
C         51.42353        42.27628        -0.21062
C         52.63540        44.43736        -0.07530
C         51.40747        43.74583        -0.19559
C         52.62228        45.83208         0.14827
C         51.39725        46.52941         0.22431
C         52.59842        48.54519         1.09480
C         51.36235        47.90466         0.69656
C         52.56115        49.89351         1.63299
C         51.33781        50.54781         1.83170
C         51.25904        51.90421         2.26796
C         55.19332        23.42450         0.90268
C         53.99557        22.76644         1.15487
C         55.22967        24.76595         0.45607
C         53.97448        25.47530         0.33763
C         55.22373        27.61982        -0.13068
C         53.93580        26.83512        -0.03953
C         55.12386        28.71475        -1.18799
C         53.89394        29.57264        -1.00957
C         55.14566        31.67751        -1.51813
C         53.91295        30.96151        -1.29268
C         55.16392        33.06746        -1.63008
C         53.91119        33.81394        -1.65518
C         55.18826        35.93656        -1.88901
C         53.92257        35.20122        -1.74402
C         55.16834        37.46104        -1.83463
C         53.89720        38.14292        -1.44949
C         55.16184        40.21914        -0.86770
C         53.91342        39.50979        -1.06249
C         55.14267        41.60673        -0.48836
C         53.89573        42.30363        -0.37411
C         55.10733        44.39238         0.16008
C         53.88509        43.70171        -0.11606
C         55.11172        45.77858         0.45104
C         53.90375        46.61507         0.13573
C         55.06112        48.53524         1.28963
C         53.82815        47.90232         0.91902
C         55.00456        49.88795         1.77076
C         53.81375        50.53768         1.91653
C         57.70790        24.68480         0.04365
C         56.44868        25.39460         0.04717
C         57.58934        27.35869        -0.89164
C         56.44551        26.75802        -0.38491
C         57.61533        28.78395        -1.19030
C         56.41655        29.48321        -1.28299
C         57.73307        31.62710        -1.68386
C         56.38414        30.88388        -1.67842
C         57.69497        33.08445        -1.51598
C         56.43383        33.80170        -1.65672
C         57.74295        35.96599        -1.74598
C         56.44493        35.18486        -1.71822
C         57.57216        37.32525        -1.02827
C         56.50128        38.21359        -1.70133
C         57.62960        40.19145        -0.71270
C         56.39955        39.54490        -0.98523
C         57.62766        41.64736        -0.52101
C         56.35039        42.32084        -0.27365
C         57.55123        44.32585         0.60184
C         56.34644        43.67373         0.13839
C         57.46709        45.65262         1.10228
C         56.28271        46.40687         0.93018
C         57.55435        48.46073         1.48978
C         56.27878        47.82441         1.24041
C         58.83275        25.22535        -0.48242
C         60.08249        27.33357        -0.95581
C         58.82204        26.54704        -1.19795
C         60.09093        28.68098        -0.97088
C         58.88980        29.46863        -1.20708
C         60.11416        31.62688        -1.01697
C         58.93566        30.86632        -1.29764
C         60.09350        32.99420        -0.99828
C         58.88990        33.75173        -1.22308
C         60.04102        35.90344        -0.80950
C         58.91533        35.19412        -1.17108
C         60.05211        37.32214        -0.75882
C         58.89085        38.06518        -0.86708
C         60.04062        40.15443        -0.16295
C         58.86221        39.48495        -0.65490
C         60.06532        41.46167         0.21311
C         58.93244        42.34970        -0.05118
C         59.96435        44.31093         1.14232
C         58.80344        43.65217         0.61620
C         59.90724        45.55787         1.68245
C         58.59663        46.24952         1.90412
C         58.67160        47.74142         1.74175
O         38.43894        27.47643         1.01764
O         41.65629        56.33932         0.22766
O         39.51979        50.94586        -1.20031
O         43.58389        48.78629        -1.69304
O         43.06898        39.90323        -2.50683
O         26.30378        43.15531         1.89333
O         39.77145        43.97720         1.40963
O         27.05520        37.57488         1.64292
O         50.63887        41.71067         0.91049
O         43.48939        24.44447        -1.08616
O         51.95784        35.66148        -3.15005
O         40.15972        36.81028        -2.64948
O         43.26706        21.30595         3.41598
O         27.13184        29.16685         1.69921
O         55.11497        36.78706        -3.12510
O         43.45684        31.15539        -2.76885
O         38.26679        28.63028        -2.36926
O         35.93982        46.39547        -1.63820
O         50.72632        31.03934        -2.70639
O         33.07058        28.15107         1.47632
O         25.15045        35.60411        -1.88226
O         41.19860        47.38048        -1.78152
O         58.50011        42.36734        -1.44898
O         46.57147        43.32157        -2.43230
O         38.26107        31.07874        -2.88230
O         25.05871        45.64961         1.28275
O         49.61330        25.52122         2.05298
O         33.25053        39.91019        -1.66723
O         57.10420        31.16844        -2.92940
O         28.45170        24.70236         1.70573
O         54.96081        28.03203        -2.46778
H         54.95793        28.71078        -3.17567
O         49.83159        49.25677         3.13445
H         49.79433        50.03665         3.72885
O         32.90629        22.86633        -1.73985
H         32.95742        21.90508        -1.93325
O         49.03682        22.13972        -0.47600
H         48.51214        21.30315        -0.53688
O         58.24887        46.01421         3.32949
H         58.20251        45.04259         3.45599
O         42.32280        44.60249        -2.38764
H         42.90838        45.25956        -2.82236
O         55.41070        28.28517         1.15154
H         55.46035        27.59416         1.84466
O         23.59000        43.29219         1.37087
H         23.79662        43.99460         2.02542
O         40.72004        46.35590         1.62458
H         40.27315        45.67918         2.18666
O         41.96790        39.39791         0.90389
H         41.17707        39.17304         1.43864
O         56.93798        38.58820        -3.01753
H         56.75282        37.82508        -3.61431
O         58.06700        36.21863        -3.14156
H         58.16447        35.35076        -3.58669
O         30.55414        44.66239         2.15415
H         29.73927        45.07744         2.51013
O         25.12139        43.05447        -1.92219
H         25.24423        42.32299        -2.56401
O         37.47288        33.43838        -3.14701
H         37.94898        32.73813        -3.65640
O         42.85362        26.81062        -2.35198
H         43.01394        25.83438        -2.31260
O         37.82539        41.48330         1.61217
H         38.21347        42.31835         1.95753
O         49.13392        47.12749        -1.75860
H         49.01906        46.33675        -2.32873
O         54.08918        47.03565        -1.27361
H         53.29990        47.56134        -1.52639
O         49.02985        21.80979         3.21625
H         49.77298        22.43902         3.33198
O         36.43267        52.09564         2.55142
H         36.31824        52.97920         2.96328
O         33.65783        33.84382        -2.49504
H         34.45889        34.18830        -2.94749
O         27.81482        33.20457         1.94317
H         27.13776        32.57295         2.26838
O         31.88789        38.01251         1.87303
H         31.06447        38.32475         2.30797
O         43.89241        23.73632         2.96646
H         43.44675        23.15697         3.63228
O         58.79164        26.24240        -2.64018
H         57.91306        25.85283        -2.83614
O         28.10039        41.51511         2.38630
H         27.55325        42.23274         2.79024
O         57.07120        37.05490         0.30696
H         57.77655        36.58992         0.80495
O         36.74403        25.01529        -1.95956
H         35.88762        25.25571        -2.37439
O         47.80217        19.92383         0.32917
H         46.99347        19.37994         0.21711
H         22.12023        26.78448        -0.87578
H         22.09518        29.24076        -0.86308
H         22.04442        31.11041        -0.59259
H         22.04814        33.53871        -0.80540
H         22.01250        35.55551        -0.87251
H         22.13679        37.96582        -0.98107
H         22.33802        39.82481        -1.48557
H         22.43332        42.23817        -1.65313
H         21.96451        44.04274        -0.60994
H         22.16650        46.32153        -1.42021
H         25.37496        23.40097        -0.21908
H         23.30156        24.66433        -0.65075
H         25.61403        49.63812        -1.57420
H         23.53601        48.34719        -1.89273
H         27.01551        22.39087        -0.16284
H         27.06163        50.75352        -0.84507
H         29.13554        21.23315        -0.10843
H         29.12684        52.01464        -0.53741
H         32.90662        19.17668         0.77336
H         30.77720        20.32900         0.58867
H         32.80712        54.17799         0.38115
H         30.72815        52.98244        -0.01224
H         34.55513        18.33597         1.20826
H         34.45282        55.10512         0.80363
H         36.65369        17.24408         1.73570
H         36.52694        56.24927         1.31544
H         40.43916        15.24193         2.49509
H         38.31107        16.34612         1.97476
H         40.25607        58.14236         2.62156
H         38.16200        56.99962         2.11669
H         42.89047        15.36283         2.88608
H         42.79566        58.05569         2.82416
H         44.97048        16.66777         3.02048
H         44.86118        56.79432         2.62859
H         48.64960        18.90051         2.98289
H         46.51203        17.82850         3.51676
H         48.54348        54.66462         2.35549
H         46.49880        55.95206         2.25238
H         50.32257        19.49419         1.74788
H         50.07417        53.62453         2.65096
H         52.37866        20.64931         1.12878
H         52.17472        52.44888         2.53524
H         56.12838        22.86511         1.03700
H         54.03211        21.71965         1.48533
H         55.93350        50.40598         2.04367
H         53.82116        51.56721         2.29728
H         57.75939        23.68228         0.49108
H         57.61936        49.55759         1.44488
H         59.77287        24.65359        -0.47737
H         61.01988        26.77510        -0.81358
H         61.04698        29.20495        -0.83205
H         61.05977        31.11164        -0.80342
H         61.03003        33.52607        -0.78899
H         60.96940        35.38444        -0.53503
H         61.01939        37.80816        -0.57728
H         60.94157        39.55701         0.02920
H         60.94709        41.85229         0.74003
H         60.94107        43.81550         1.04461
H         60.82247        46.04584         2.04836
H         59.63503        48.24338         1.91462
