         252
 CSIRO Nanostructure Databank - Neutral Graphene Oxide Data Set
C         30.39224        31.65528        -0.15275
C         30.28227        32.89300         0.01753
C         30.35034        35.97263        -0.22024
C         30.41581        37.21323        -0.26377
C         30.46682        40.28399        -1.14744
C         30.40216        41.49429        -1.43163
C         32.91778        28.98952        -0.80436
C         31.74682        29.49898        -0.64506
C         32.69225        31.72633        -0.96901
C         31.46917        30.83579        -0.54821
C         32.69245        33.14738        -0.31872
C         31.47617        33.67640         0.51214
C         32.68637        35.99760         0.57112
C         31.39225        35.19269         0.47270
C         32.74864        37.43101         0.11609
C         31.51161        38.13814        -0.24983
C         32.76865        40.26363        -0.56699
C         31.51172        39.46391        -0.61287
C         32.88490        41.58580        -1.27437
C         31.57091        42.31859        -1.74869
C         32.86733        44.28425        -1.41806
C         31.76111        43.76248        -1.63405
C         35.53419        27.46305        -0.36168
C         35.39347        28.88023        -0.46880
C         34.17703        29.54209        -0.77614
C         35.39473        31.76723        -0.42037
C         34.11124        31.04575        -0.85935
C         35.24064        33.09558         0.21107
C         33.98316        33.84669         0.02339
C         35.25376        35.87964         0.31714
C         33.97524        35.18493         0.77835
C         35.24384        37.34371         0.07209
C         33.95988        38.08304         0.02601
C         35.36084        40.13223        -0.75922
C         34.05285        39.53275        -0.23436
C         35.33680        41.65738        -0.68770
C         34.13306        42.34772        -0.96565
C         35.32337        44.49229        -0.73836
C         34.14315        43.77373        -1.00971
C         35.42489        45.93544        -0.78634
C         37.65463        27.31002         0.67896
C         36.44562        26.74204         0.05770
C         37.76251        28.79707         0.39373
C         36.59689        29.53174        -0.10570
C         37.91157        31.57635        -0.37977
C         36.67243        30.97700        -0.25218
C         38.06084        32.99482        -0.72621
C         36.27590        33.76259         0.96288
C         37.82600        35.80918         0.88069
C         36.46237        35.14953         0.77050
C         37.75351        37.34915         0.71062
C         36.47979        38.11573         0.38787
C         37.75894        40.18932         0.02862
C         36.57232        39.51306        -0.07602
C         37.86131        41.60654        -0.52265
C         36.54769        42.37525        -0.53208
C         37.87170        44.55852        -0.48216
C         36.55226        43.78331        -0.53732
C         37.73505        45.99379         0.07388
C         36.48520        46.42700        -0.23606
C         40.22504        24.63161         0.06013
C         39.14806        25.13196         0.42231
C         40.23970        27.22241         1.03041
C         38.90364        26.49515         0.88600
C         40.20395        28.75737         0.99948
C         38.97491        29.45013         0.54694
C         40.29387        31.67920         0.45041
C         39.18656        30.80119        -0.12945
C         40.27266        33.03887         0.29195
C         39.09406        33.75370        -0.18253
C         40.25508        35.96979         0.34357
C         38.97819        35.27266        -0.10180
C         40.23703        37.33675         0.46606
C         39.00520        38.09434         0.46983
C         40.25510        40.23228         0.34892
C         38.99558        39.49129         0.35474
C         40.27231        41.65187         0.28898
C         38.96708        42.35178         0.20398
C         40.22588        44.57797         0.47856
C         38.95001        43.82925         0.28920
C         40.18669        45.90407         0.72949
C         38.81387        46.62069         0.90557
C         40.16608        48.71367         0.83257
C         39.14438        48.06136         0.60100
C         42.87838        24.67195         0.15184
C         41.53764        25.19213         0.24388
C         42.78967        27.28102         0.79268
C         41.50530        26.51183         0.69828
C         42.80387        28.78016         0.85805
C         41.51195        29.52475         1.02277
C         42.85614        31.71217         0.77267
C         41.55005        31.01139         0.87052
C         42.84786        33.07833         0.54064
C         41.56837        33.81014         0.15359
C         42.77650        35.93116         0.42771
C         41.50011        35.20114         0.78037
C         42.67829        37.34244         0.05989
C         41.53055        38.08170         0.69560
C         42.69257        40.24635         0.14658
C         41.49219        39.54446         0.32851
C         42.71152        41.66703         0.26676
C         41.47500        42.36749         0.32373
C         42.73296        44.49248         0.85150
C         41.53090        43.87262         0.14744
C         42.67461        45.81769         1.20394
C         41.49466        46.67952         0.73663
C         42.75647        48.63637         1.41950
C         41.35642        48.08476         1.49688
C         43.94828        25.19277         0.50549
C         45.16363        27.24277         1.80845
C         44.02716        26.48541         1.21814
C         45.00190        28.73823         1.90392
C         44.02042        29.49769         1.36027
C         45.38785        31.67077         0.79787
C         44.09153        31.05342         1.40910
C         45.34915        33.13759         0.39571
C         44.05618        33.84378         0.50774
C         45.21486        36.01267         0.07135
C         43.99057        35.26235         0.33652
C         45.18056        37.34222        -0.31524
C         43.89957        38.06836        -0.41568
C         45.20299        40.26269        -0.16043
C         43.89712        39.59691        -0.51286
C         45.20235        41.63957         0.20758
C         43.96586        42.35767         0.40335
C         45.19367        44.32950         1.23606
C         43.98348        43.72819         0.85762
C         45.18036        45.70460         1.80728
C         43.87802        46.47409         1.79352
C         43.72161        47.92861         1.73821
C         47.58219        27.60663         1.31940
C         46.59737        26.95182         1.66170
C         48.00958        28.96091         1.07948
C         46.98559        29.83242         1.52602
C         47.85291        31.67731         0.26495
C         46.76120        31.08519         0.94829
C         47.90984        33.16936         0.30901
C         46.61337        33.93909         0.36611
C         47.61657        36.23452         0.27953
C         46.49231        35.31738         0.27440
C         47.65270        37.42855        -0.35153
C         46.39556        38.11297        -0.77591
C         47.63485        40.27313        -0.27564
C         46.40518        39.57660        -0.36342
C         47.65027        41.65820        -0.00758
C         46.44894        42.31501         0.33420
C         47.81860        44.45141         0.92996
C         46.48174        43.64896         0.97275
C         47.48854        45.86120         1.13147
C         46.50285        46.33907         1.71431
C         50.04839        28.82814        -0.46431
C         48.98607        29.48491         0.21287
C         50.09962        31.49431        -0.84120
C         49.01046        30.90895        -0.06237
C         50.17715        32.91550        -0.94752
C         49.27788        33.73601        -0.11412
C         50.11382        35.85778        -1.19907
C         49.47712        35.18666        -0.20288
C         50.12247        37.38649        -1.28238
C         48.98529        38.08763        -0.49768
C         49.99494        40.41324        -1.12848
C         48.94233        39.56607        -0.45038
C         50.23884        41.69503        -0.36133
C         48.96662        42.38606         0.07338
C         50.30228        44.44148         0.14263
C         48.88314        43.94038        -0.01031
C         50.91657        29.27758        -1.24355
C         51.91327        31.40227        -2.38969
C         51.06571        30.66271        -1.54286
C         51.86228        32.65855        -2.49988
C         51.05045        33.59867        -1.84212
C         52.71601        35.68448        -1.30011
C         51.03496        35.06785        -2.06022
C         52.45800        36.88721        -1.01708
C         51.52974        37.92978        -0.89505
C         52.47760        40.32160        -0.55258
C         51.70634        39.27784        -0.66242
C         52.77102        41.64718        -0.49289
C         51.59193        42.38728        -0.44185
C         51.28844        43.76042        -0.21163
O         48.99829        33.39639         1.27849
O         45.25056        32.03798        -0.60728
O         49.38908        38.79630         0.71459
O         48.83945        35.84004         0.84302
O         32.44955        41.66348        -2.66979
O         33.37522        40.34554         0.76656
O         33.30116        34.05424        -1.27233
O         36.93749        37.93818         1.77751
O         44.27853        26.44490         2.63651
O         50.04856        40.40907        -2.38850
O         49.82612        41.73641         1.04804
O         35.33336        36.38629        -1.05858
O         42.99763        28.09794        -0.42429
O         42.90939        37.53463        -1.38581
O         46.33719        38.15588        -2.28412
O         41.50547        30.36109         2.22932
O         47.50094        43.67015         2.07267
O         38.00400        26.78248         1.96584
O         44.39445        45.89212         3.00373
O         31.78097        35.81260         1.72262
O         34.97377        31.67013        -1.84312
O         40.19032        27.99200         2.25358
O         46.09727        29.37702         2.50154
O         38.51647        43.03038         1.42953
O         37.14996        33.53811        -1.54893
H         37.36904        34.49460        -1.70073
O         41.81627        38.02807         2.13457
H         41.15453        38.58839         2.59435
O         38.32615        35.54121         2.21337
H         37.79873        36.08975         2.83617
O         38.60520        35.79209        -1.40803
H         39.36854        35.66040        -2.01116
O         41.01815        47.84475         2.84085
H         41.07334        48.68167         3.34729
O         44.08664        31.44213         2.79444
H         43.22776        31.14582         3.17592
O         38.44548        46.54820         2.27534
H         39.16859        46.96094         2.80360
O         49.97004        37.71936        -2.68049
H         49.98599        38.72095        -2.78216
O         41.77184        46.98555        -0.65423
H         42.43928        47.70632        -0.68478
O         35.43486        39.76628        -2.16023
H         36.23650        40.18895        -2.54028
O         41.42298        35.05842         2.21631
H         41.49405        35.96177         2.60291
O         32.47316        31.91579        -2.36656
H         33.18978        32.50589        -2.69622
O         39.73300        30.44389        -1.46224
H         38.99496        30.09246        -2.00568
O         41.65888        34.05608        -1.28320
H         41.76970        33.19119        -1.73274
O         43.71026        39.92045        -1.92428
H         43.11164        39.23081        -2.29476
O         38.37014        44.66123        -1.83637
H         37.68525        45.10015        -2.38453
O         51.17255        35.43723        -3.33925
H         50.90232        36.38993        -3.43355
O         41.74100        44.09169        -1.27810
H         41.74161        45.06789        -1.42517
O         46.35711        36.77841        -2.73262
H         45.45171        36.66143        -3.11217
O         48.43188        44.27270        -1.32367
H         49.15657        44.12928        -1.96790
O         38.23644        41.46907        -1.92449
H         39.20261        41.30551        -1.97458
O         31.75290        33.27212         1.85218
H         31.05054        33.62649         2.43802
O         37.14168        33.05456         1.71679
H         37.78738        33.68324         2.12641
O         34.14942        34.94528         2.18308
H         33.24790        34.91155         2.58531
