         236
 CSIRO Nanostructure Databank - Neutral Graphene Oxide Data Set
C        -11.00109         0.70569        -1.02232
C         -9.79392         1.50540        -0.74799
C         -8.55654         0.72382        -0.29443
C         -7.43918         1.40111         0.38969
C         -6.27687         0.71394         0.70665
C         -4.96873         1.37232         0.71590
C         -3.78263         0.67724         0.72924
C         -2.48732         1.23625         0.14899
C         -1.22078         0.62582         0.73525
C         -0.05909         1.35179         0.87217
C          1.19537         0.68502         1.29271
C          2.49421         1.45516         1.21614
C          3.79700         0.67272         1.05552
C          4.97881         1.38902         0.52631
C          6.22292         0.66583         0.42888
C          7.37719         1.31176         0.00544
C          8.69788         0.71567         0.21467
C          9.90339         1.36383        -0.35863
C         11.12683         0.57215        -0.41258
C         -9.86416         2.94365        -0.40872
C         -8.73820         3.61380        -0.03416
C         -7.50701         2.91143         0.50978
C         -6.19177         3.44361        -0.09229
C         -4.99085         2.89492         0.77151
C         -3.72551         3.54383         0.25865
C         -2.47588         2.76380         0.03849
C         -1.13319         3.46778        -0.03862
C         -0.06743         2.88293         0.92940
C          1.26866         3.59648         0.65679
C          2.51073         2.87734         0.80562
C          3.71755         3.50602         0.50682
C          4.94131         2.77329         0.32458
C          6.10953         3.47005        -0.20412
C          7.28904         2.66505        -0.55274
C          8.57398         3.37456        -0.97376
C          9.84998         2.63465        -0.84207
C         -8.68456         5.06137         0.07463
C         -7.48899         5.73634         0.01542
C         -6.21899         4.98991        -0.39191
C         -5.01394         5.73652         0.14569
C         -3.74284         5.03431         0.45327
C         -2.44682         5.76677         0.40415
C         -1.20087         4.96156         0.26434
C          0.06857         5.68380        -0.02831
C          1.29490         4.95362         0.35874
C          2.51191         5.73253         0.33309
C          3.80844         5.00498         0.55920
C          4.87046         5.63507        -0.35513
C          6.13436         4.82598        -0.46649
C          7.33436         5.50857        -0.90958
C          8.53310         4.83273        -1.02486
C         -7.42489         7.18288         0.06681
C         -6.25870         7.90777        -0.10511
C         -4.98397         7.17231        -0.26966
C         -3.68554         7.89975        -0.29300
C         -2.42823         7.21043         0.05881
C         -1.25045         7.89732        -0.02705
C          0.04644         7.17013        -0.03901
C          1.27908         7.94428         0.35473
C          2.53382         7.10338         0.19423
C          3.81159         7.85839         0.12795
C          5.13701         7.09149         0.06069
C          6.17550         7.69784        -0.87109
C          7.25900         6.93633        -1.19989
C         -6.17204         9.34638        -0.13522
C         -4.98060        10.02495        -0.23984
C         -3.69150         9.37724        -0.27875
C         -2.48158        10.03971        -0.33741
C         -1.22260         9.32639        -0.31002
C         -0.00113         9.94519        -0.53894
C          1.27322         9.28190        -0.37284
C          2.45081         9.87619        -0.72716
C          3.75613         9.27361        -0.38983
C          4.96953         9.83688        -1.02529
C          6.07824         9.09420        -1.24965
C        -10.92357        -0.63548        -1.21178
C         -9.70947        -1.39026        -0.93225
C         -8.63300        -0.72389        -0.31057
C         -7.54623        -1.49717         0.27358
C         -6.32350        -0.76367         0.85036
C         -5.04372        -1.53206         1.07530
C         -3.73265        -0.77280         1.05174
C         -2.47406        -1.54648         0.90265
C         -1.23780        -0.83637         0.85534
C         -0.02380        -1.56164         0.91805
C          1.24154        -0.83641         1.19780
C          2.54143        -1.52537         0.96911
C          3.75289        -0.80557         0.90939
C          4.99939        -1.48422         0.72048
C          6.24147        -0.76679         0.65499
C          7.46141        -1.46790         0.58271
C          8.74656        -0.74106         0.62965
C         10.06682        -1.50957         0.58980
C         11.18540        -0.73066        -0.07143
C         -9.63414        -2.77820        -1.13519
C         -8.45622        -3.54107        -0.81865
C         -7.39909        -2.88793        -0.09909
C         -6.29447        -3.65632         0.49933
C         -5.01439        -3.00277         0.90958
C         -3.80468        -3.67558         1.05196
C         -2.50946        -2.96446         1.02545
C         -1.26630        -3.68112         1.00923
C         -0.02888        -2.98186         0.91253
C          1.26249        -3.68680         0.81508
C          2.52992        -2.94121         0.80696
C          3.77365        -3.62645         0.66975
C          5.01820        -2.90348         0.64158
C          6.25898        -3.58485         0.48192
C          7.46374        -2.87876         0.42251
C          8.71505        -3.55875         0.05339
C          9.90499        -2.88785         0.01233
C         -8.38830        -4.90177        -1.15157
C         -7.10337        -5.65223        -1.00595
C         -6.26983        -5.10836         0.14448
C         -5.02187        -5.86015         0.48652
C         -3.81086        -5.17272         1.08115
C         -2.51898        -5.96791         1.39730
C         -1.21956        -5.15470         1.24132
C          0.08886        -5.87644         0.98318
C          1.28659        -5.05867         0.67936
C          2.57283        -5.83642         0.70891
C          3.81004        -5.03760         0.46595
C          4.99769        -5.73537         0.20393
C          6.31847        -5.08697         0.52149
C          7.48052        -5.67016        -0.24713
C          8.63583        -4.93248        -0.38605
C         -7.24805        -7.15596        -0.87702
C         -6.15417        -7.89292        -0.54916
C         -4.89540        -7.16670        -0.21897
C         -3.62408        -7.89847        -0.11697
C         -2.46614        -7.35730         0.68549
C         -1.17405        -8.03574         0.36152
C          0.18040        -7.39542         0.70674
C          1.19302        -7.66578        -0.44084
C          2.54113        -7.12104        -0.06781
C          3.71179        -7.76339        -0.39580
C          4.97944        -7.09113        -0.20902
C          6.19294        -7.73891        -0.62586
C          7.39433        -7.02641        -0.67115
C         -6.10611        -9.34639        -0.52154
C         -4.93550       -10.03356        -0.42568
C         -3.64232        -9.36950        -0.36969
C         -2.45205        -9.97061        -0.61988
C         -1.24043        -9.08669        -0.77525
C          0.05723        -9.82362        -0.90855
C          1.22926        -9.14126        -0.79840
C          2.49156        -9.78786        -1.05693
C          3.69035        -9.12389        -0.92907
C          4.94728        -9.76117        -1.24019
C          6.13165        -9.10192        -1.10336
O         -4.31169         7.35671        -1.56828
O          4.22920         5.29657         1.97846
O         -1.65223         5.36450         1.58461
O          3.35502         1.18227         2.35667
O          6.57375        -5.43427         1.93271
H          6.81535        -6.38416         1.96344
O          1.17894         8.24419         1.77412
H          2.02136         8.69321         2.02030
O         -6.03700         2.74363        -1.33575
H         -6.08501         3.40732        -2.06592
O         -7.36467        -1.22304         1.73817
O         10.49017        -1.70070         1.97241
H         10.21648        -0.88679         2.45542
O         -3.32788         3.18370        -1.10427
O          7.67546         2.74074        -1.97662
O         -0.43060         3.11984         2.25122
O          2.70271        -6.24331         2.13192
H          3.58289        -6.66364         2.24005
O          0.18330         6.40983        -1.29938
O         -7.58150         3.22287         1.93467
H         -8.40262         2.82573         2.29278
O         -3.90708        -7.09981        -1.33208
O          5.74418         7.12019         1.36432
H          5.45903         7.95682         1.79593
O         -5.01992         3.18714         2.16942
H         -5.92314         3.01777         2.52318
O         -6.17090         5.14860        -1.83811
H         -5.58162         5.90196        -2.07106
O         -4.41393        -1.08392         2.31697
O          3.88195         8.98411         1.07952
O         -1.41832        -8.35874        -2.04349
H         -2.32913        -7.98301        -2.07666
O          1.12339        -0.13518         2.48797
O          0.77336        -6.87966        -1.58845
H          0.02502        -7.36087        -2.03288
O         -2.57033        -6.24898         2.80380
H         -3.49043        -6.51296         3.02798
O          3.25932         4.69624         2.85654
H          2.53655         5.36848         2.91511
O          4.30900         5.71834        -1.69163
H          4.26704         4.81539        -2.07011
O          8.83200         0.30678         1.64255
O         -8.70814         1.25051        -1.69523
O         -0.32795        -5.53819         2.34154
O          0.68764        -8.04041         1.87661
H          0.20718        -7.65758         2.64468
O         -1.93359        -8.41592         1.53914
O         -6.27594        -5.39663        -2.19632
H         -6.75244        -5.75241        -2.97543
O         -4.63425         5.51552         1.51927
O         -2.51624         0.72211        -1.22172
H         -3.10935         1.32772        -1.72645
O         -0.62205         3.29223        -1.37096
H         -1.37589         3.38089        -1.99451
O         -6.94413        -4.70836         1.35252
O         -4.84347        -5.81642         1.92181
H         12.14408        -1.26378        -0.16581
H         12.02178         1.06783        -0.82037
H         10.76691         3.11019        -1.22468
H          9.47005         5.38892        -1.17800
H          8.09925         7.38878        -1.75042
H          6.93703         9.54201        -1.77400
H          4.92538        10.88107        -1.37036
H          2.44845        10.84496        -1.25206
H          0.01165        11.00705        -0.83270
H         -2.46209        11.13924        -0.39280
H         -4.99832        11.12516        -0.26442
H         -7.10884         9.92033        -0.07294
H         -8.37050         7.72496         0.22784
H         -9.62962         5.62339         0.14893
H        -10.78090         3.49802        -0.66402
H        -11.96454         1.22813        -1.11654
H        -11.82303        -1.20369        -1.49135
H        -10.48971        -3.30289        -1.58501
H         -9.21701        -5.36144        -1.70867
H         -8.20426        -7.64136        -1.12605
H         -7.05391        -9.89336        -0.63282
H         -4.94274       -11.13277        -0.46705
H         -2.38345       -11.04766        -0.83418
H          0.04832       -10.88781        -1.18934
H          2.47891       -10.83751        -1.38816
H          4.92876       -10.79597        -1.61239
H          7.07536        -9.59637        -1.37665
H          8.28625        -7.50444        -1.10462
H          9.53124        -5.39250        -0.83208
H         10.81333        -3.41875        -0.31218
