         598
 CSIRO Nanostructure Databank - Neutral Graphene Oxide Data Set
C         23.09296        69.74424         1.71514
C         23.10810        71.14059         1.99047
C         21.93430        71.83510         2.39119
C         23.17882        73.91546         2.53449
C         21.98539        73.20200         2.65909
C         25.39113        65.48737         0.44093
C         25.22621        66.93195         0.32929
C         24.16229        67.65773         1.00439
C         25.45468        69.77688         0.95853
C         24.21342        69.04613         1.18886
C         25.55242        71.13587         1.54552
C         24.32871        71.86425         1.89671
C         25.59074        74.00559         1.95831
C         24.37889        73.26176         2.14785
C         27.82086        61.26810        -0.19786
C         27.77312        62.68514        -0.30735
C         26.65453        63.40485         0.10315
C         27.75405        65.62384        -0.24682
C         26.55658        64.84391         0.04630
C         27.77384        66.99295        -0.14326
C         26.52734        67.76292        -0.01054
C         27.86623        69.86251         0.39182
C         26.58254        69.16863         0.43795
C         27.86013        71.37441         0.44378
C         26.81491        71.92643         1.38254
C         27.97460        74.10887         1.28351
C         26.78147        73.40482         1.52815
C         30.36586        56.98146        -0.28131
C         30.26836        58.36182        -0.47158
C         29.05390        59.10545        -0.32372
C         30.20411        61.24397        -0.85766
C         28.97614        60.50623        -0.46767
C         30.21272        62.72407        -1.08995
C         28.88134        63.47251        -1.00465
C         30.32504        65.57401        -0.51637
C         29.02476        64.85244        -0.39503
C         30.31967        67.06240        -0.55005
C         29.02821        67.77915        -0.30532
C         30.34378        69.84788         0.38702
C         29.03150        69.20110         0.11897
C         30.39992        71.33145         0.52740
C         29.19642        72.03337         0.68132
C         30.43674        74.12245         0.96266
C         29.20203        73.43528         0.96318
C         32.89938        52.75960         0.35036
C         32.87653        54.16070         0.19083
C         31.65401        54.87080         0.01973
C         32.85228        56.98763        -0.09145
C         31.61833        56.27001        -0.15635
C         32.86000        58.40918        -0.42362
C         31.50852        59.12856        -0.70947
C         32.69210        61.35828        -0.55441
C         31.47680        60.56551        -0.63719
C         32.69959        62.76629        -0.97239
C         31.52265        63.45980        -1.04756
C         32.73548        65.62407        -1.13066
C         31.55792        64.91456        -1.01127
C         32.80582        67.05671        -0.78487
C         31.62820        67.72148        -0.39236
C         32.91725        69.84297         0.13416
C         31.62856        69.07908         0.17369
C         32.91339        71.32322         0.38947
C         31.63106        72.02573         0.57433
C         32.90372        74.15854         0.70581
C         31.65550        73.44426         0.73889
C         35.35816        48.53300         0.91437
C         35.34952        49.94375         0.87761
C         34.13715        50.64812         0.68832
C         35.35739        52.77580         0.59165
C         34.11020        52.05213         0.55508
C         35.34277        54.17828         0.35978
C         34.12968        54.87682         0.19403
C         35.30763        57.05354         0.15594
C         34.10600        56.31965         0.10075
C         35.25753        58.50349         0.37815
C         33.98112        59.24087         0.09106
C         35.24519        61.48657        -0.30085
C         33.96870        60.73767        -0.11198
C         35.26961        62.78399        -0.74039
C         34.01849        63.35723        -1.41503
C         35.29064        65.64270        -1.46762
C         33.98515        64.89398        -1.50404
C         35.24068        67.15254        -1.40950
C         34.02108        67.78886        -0.92398
C         35.25098        70.10703        -0.85117
C         34.01268        69.26132        -0.71047
C         35.28498        71.47588        -0.26106
C         34.13178        72.11954         0.09877
C         35.35237        74.27443         0.33907
C         34.13034        73.54497         0.41323
C         37.83020        44.27151         0.89898
C         37.79053        45.67600         1.08960
C         36.58317        46.39680         0.99578
C         37.79336        48.52900         1.28326
C         36.55907        47.80862         1.07106
C         37.79890        49.95831         1.24267
C         36.59508        50.66959         1.00485
C         37.79960        52.84771         0.98966
C         36.58673        52.09640         0.83810
C         37.85718        54.22455         0.74950
C         36.63796        54.86642         0.22461
C         37.83572        57.10876         0.50364
C         36.61528        56.39808         0.08790
C         37.76096        58.57423         0.72188
C         36.52670        59.27561         0.24065
C         37.71742        61.57489         0.23273
C         36.50532        60.74622        -0.03139
C         37.71831        62.94637        -0.30945
C         36.52802        63.56307        -0.77123
C         37.70354        65.79981        -0.62476
C         36.53930        64.94174        -1.10815
C         37.79667        67.22025        -1.12700
C         36.56380        67.94832        -1.42639
C         37.84236        70.11608        -0.91036
C         36.55243        69.43997        -1.20725
C         37.85518        71.43847        -0.22723
C         36.57143        72.15412         0.00947
C         37.83349        74.28753         0.08313
C         36.59549        73.62975         0.13749
C         40.22145        39.99471         0.53552
C         40.22056        41.35928         0.77454
C         39.04967        42.15567         0.66039
C         40.26792        44.25044         1.24921
C         39.03433        43.54185         0.95104
C         40.23750        45.63409         1.45799
C         39.01733        46.38795         1.36426
C         40.23837        48.55717         1.70540
C         38.98962        47.79615         1.50076
C         40.24774        50.01601         1.48095
C         39.05247        50.68398         1.40156
C         40.29077        52.94950         1.64135
C         39.00073        52.16146         1.49955
C         40.31312        54.35635         1.19114
C         39.07206        54.98835         0.89070
C         40.25892        57.20519         0.99790
C         39.01242        56.42672         0.76077
C         40.27612        58.60560         0.46546
C         39.02634        59.37247         0.72686
C         40.23622        61.43694        -0.24138
C         39.01890        60.85514         0.47414
C         40.29777        62.93757        -0.08827
C         38.97859        63.69071        -0.20988
C         40.23730        65.73341        -0.78093
C         39.02482        65.08509        -0.65199
C         40.25344        67.18132        -0.86883
C         39.01792        67.90771        -0.91639
C         40.29806        70.01223        -0.61402
C         39.09414        69.33491        -0.83147
C         40.31963        71.46711        -0.41439
C         39.11381        72.19609        -0.30239
C         40.32924        74.28775        -0.16537
C         39.08937        73.60618        -0.11232
C         42.47408        35.83640        -0.85225
C         42.50998        37.18918        -0.40002
C         41.37769        37.80532         0.13239
C         42.71372        39.88939         0.53711
C         41.43203        39.13525         0.82255
C         42.77914        41.28485         1.02598
C         41.47278        42.04245         1.19617
C         42.75190        44.16233         1.30323
C         41.52029        43.52105         1.24250
C         42.79809        45.59996         1.63124
C         41.49926        46.33321         1.76334
C         42.69081        48.49805         0.97308
C         41.53880        47.83260         1.70870
C         42.80518        49.97351         1.30258
C         41.56156        50.69535         1.67549
C         42.92610        52.94245         1.59046
C         41.59708        52.19982         1.77757
C         42.80927        54.35947         1.05459
C         41.56529        55.02741         1.08733
C         42.83375        57.22914         0.73204
C         41.57977        56.50105         1.04682
C         42.83870        58.60724         0.48424
C         41.56627        59.31534         0.24377
C         42.74587        61.43380        -0.18062
C         41.56085        60.77652         0.07270
C         42.73632        62.84479        -0.59623
C         41.53363        63.59190        -0.53202
C         42.71143        65.65017        -1.03684
C         41.50154        64.99025        -0.77235
C         42.69937        67.12602        -1.17430
C         41.47049        67.88495        -0.90992
C         42.78900        69.97651        -0.48161
C         41.53441        69.29336        -0.69545
C         42.79039        71.38768         0.07889
C         41.53874        72.15037        -0.26312
C         42.81237        74.23624        -0.33985
C         41.54672        73.57207        -0.22609
C         44.78866        33.20510        -2.14782
C         43.62699        33.81201        -1.70013
C         44.86982        35.91516        -1.38353
C         43.63602        35.18277        -1.29892
C         44.90190        37.27651        -0.99510
C         43.76530        37.91283        -0.47143
C         45.17962        39.93581         0.13184
C         43.81435        39.28570        -0.01411
C         45.14394        41.44215         0.28760
C         43.99753        42.07833         0.78475
C         45.22627        44.19026         0.98190
C         44.00339        43.47862         1.03813
C         45.32894        45.62663         1.45966
C         44.02728        46.38398         1.32782
C         45.20224        48.43947         0.64212
C         43.98873        47.71769         1.08329
C         45.17513        49.93003         0.52997
C         43.96587        50.69346         0.97708
C         45.16808        52.82017         0.41330
C         43.98649        52.10489         0.91269
C         45.23042        54.34294         0.42412
C         44.00538        55.07168         0.79480
C         45.30184        57.19789         0.60249
C         44.05205        56.49995         0.69869
C         45.29279        58.61982         0.54133
C         44.06210        59.32803         0.38117
C         45.18985        61.40346        -0.31332
C         44.01414        60.73271         0.00856
C         45.15499        62.68648        -0.96475
C         43.93730        63.47917        -1.00909
C         45.14327        65.68510        -1.22063
C         43.93177        64.91849        -1.17894
C         45.16412        67.05329        -0.65953
C         43.99009        67.88783        -0.98778
C         45.26774        69.92224        -0.26790
C         43.98925        69.28733        -0.54312
C         45.27425        71.36899        -0.04019
C         44.10490        72.13822        -0.11840
C         45.19500        74.37330        -0.75954
C         44.05283        73.58346        -0.33037
C         45.99919        33.91746        -2.22652
C         47.30607        35.99618        -1.91180
C         46.06477        35.27425        -1.86236
C         47.38105        37.36001        -1.64154
C         46.11025        38.06263        -1.33741
C         47.47540        40.20175        -1.01800
C         46.15570        39.49519        -0.96095
C         47.54925        41.57114        -0.41578
C         46.33961        42.16678         0.17950
C         47.70043        44.17293         0.62285
C         46.41153        43.51230         0.61072
C         47.70369        45.60481         0.65184
C         46.51384        46.34518         0.85725
C         47.69938        48.43231         0.32392
C         46.50141        47.72996         0.65264
C         47.73664        49.87540         0.20010
C         46.50140        50.62986         0.54732
C         47.66512        52.85345        -0.05893
C         46.48164        52.11617         0.47704
C         47.75567        54.30896         0.18798
C         46.53859        55.05290         0.45624
C         47.84820        57.13680         0.76425
C         46.54461        56.44350         0.61224
C         47.90794        58.67266         0.91430
C         46.55356        59.39221         0.62996
C         47.73612        61.44892        -0.43077
C         46.49874        60.82271         0.06388
C         47.66377        62.61988        -1.18382
C         46.36332        63.10830        -1.52831
C         47.63965        65.64294        -1.22911
C         46.37523        65.17533        -1.63334
C         47.73007        66.98682        -0.60910
C         46.45691        67.74649        -0.38011
C         47.81390        69.88388        -0.06183
C         46.46800        69.22608        -0.33924
C         47.77677        71.38134        -0.22379
C         46.57185        71.95797         0.15995
C         47.76591        74.41406        -0.90140
C         46.49798        74.07043        -0.38418
C         48.62003        38.05581        -1.53128
C         49.94558        40.08768        -0.97030
C         48.72273        39.41238        -1.16077
C         50.04087        41.42460        -0.48468
C         48.85801        42.14305        -0.08032
C         50.24356        44.08581         0.78169
C         48.91067        43.43797         0.43711
C         50.15015        45.57768         0.48365
C         48.90892        46.29107         0.33047
C         50.13749        48.40323        -0.17872
C         48.89798        47.69687         0.17297
C         50.18847        49.87256        -0.10380
C         48.92570        50.56930        -0.00920
C         50.20154        52.77558        -0.10510
C         48.93650        52.04527        -0.22208
C         50.23717        54.17327        -0.11840
C         48.99904        54.92473         0.04385
C         50.31882        57.07919        -0.05843
C         49.10704        56.35550         0.40068
C         50.27246        58.47132        -0.27652
C         49.12281        59.32368         0.18069
C         50.00420        61.21752        -1.39322
C         49.03484        60.74588        -0.32416
C         50.11320        62.74632        -1.45524
C         48.84441        63.43859        -1.50304
C         50.05610        65.62629        -1.67651
C         48.81275        64.85605        -1.45800
C         50.16051        67.05861        -1.36067
C         49.00366        67.76278        -0.78145
C         50.09412        69.97079        -1.12711
C         48.99045        69.23582        -0.74625
C         50.09122        71.42230        -1.02078
C         48.95340        72.13558        -0.56928
C         50.16944        74.27896        -0.87998
C         48.93652        73.60958        -0.73275
C         51.28170        42.10632        -0.42958
C         52.72375        44.00366        -0.11408
C         51.44879        43.42140         0.06577
C         53.13465        45.30106         0.33953
C         51.27137        46.34071         0.65709
C         52.72955        48.37374         0.17777
C         51.45099        47.65239         0.05910
C         52.68422        49.79300         0.08965
C         51.41552        50.51881        -0.01194
C         52.73138        52.75463        -0.00026
C         51.42150        51.99926         0.13506
C         52.73691        54.19638        -0.31774
C         51.51160        54.88441        -0.22888
C         52.70235        57.00890        -0.66774
C         51.49540        56.33025        -0.33792
C         52.64579        58.41037        -0.92176
C         51.40319        59.09657        -0.84981
C         52.61345        61.27383        -1.32931
C         51.33739        60.49550        -1.32149
C         52.56748        62.74525        -0.99278
C         51.31978        63.41627        -1.49716
C         52.61470        65.64551        -1.58137
C         51.38745        64.86017        -1.78738
C         52.61636        67.03871        -1.56556
C         51.35055        67.74261        -1.45960
C         52.63796        69.93265        -1.74659
C         51.31623        69.22579        -1.57836
C         52.62776        71.43685        -1.67829
C         51.30189        72.17154        -1.41249
C         52.63383        74.23837        -1.03032
C         51.39522        73.59770        -1.03938
C         54.04627        46.21101        -0.14701
C         55.15873        48.39708         0.20965
C         53.97186        47.65558         0.15021
C         55.14923        49.81430         0.22368
C         53.91023        50.50199         0.08677
C         55.25109        52.68900        -0.19457
C         53.94277        51.93501        -0.24869
C         55.23395        54.17003        -0.25509
C         54.01365        54.86130        -0.52246
C         55.06341        57.02717        -1.24893
C         53.95379        56.29164        -0.80785
C         55.11324        58.45877        -1.24223
C         53.87113        59.15638        -1.10416
C         55.08715        61.28572        -1.04804
C         53.87460        60.55894        -1.08989
C         55.10492        62.71112        -1.02399
C         53.85827        63.42310        -1.40280
C         55.10352        65.63566        -1.23228
C         53.88103        64.91255        -1.55446
C         55.10040        67.04828        -1.22172
C         53.86926        67.76791        -1.43690
C         55.10334        69.88425        -1.23732
C         53.90068        69.18638        -1.46216
C         55.12265        71.36388        -1.36902
C         53.87200        72.13933        -1.38797
C         55.09964        74.22163        -0.86364
C         53.87206        73.52785        -1.14134
C         56.34933        50.55795         0.44990
C         57.44921        52.69686         0.96072
C         56.39403        51.95736         0.39205
C         57.53502        54.09914         0.78353
C         56.51857        54.77679        -0.01065
C         58.01115        56.76116        -0.11410
C         56.90760        55.99523        -0.57805
C         58.28320        58.06808        -0.58575
C         56.32117        59.18943        -1.34027
C         57.52317        61.37250        -1.03831
C         56.33222        60.59732        -1.14437
C         57.53772        62.71936        -0.65133
C         56.28328        63.40663        -0.77997
C         57.54515        65.58320        -0.49377
C         56.24019        64.87833        -0.68919
C         57.59756        67.01154        -0.92534
C         56.32768        67.76538        -1.03711
C         57.56671        69.88406        -0.69905
C         56.34121        69.18043        -1.00940
C         57.51363        71.36546        -0.37103
C         56.38856        72.10953        -1.05189
C         57.52517        74.23073        -0.41044
C         56.32109        73.56574        -0.76065
C         58.63382        54.83441         1.27272
C         59.88257        56.97902         1.47426
C         58.85022        56.19324         0.91812
C         60.06826        58.32932         1.08795
C         59.27684        58.86981         0.00710
C         60.07932        61.16308         0.52173
C         59.39149        60.27564        -0.27290
C         59.75907        62.64730         0.69297
C         58.76916        63.40724        -0.22568
C         59.90229        65.60075         0.24015
C         58.79137        64.79560        -0.25524
C         59.93147        66.97296         0.11091
C         58.87737        67.74989        -0.59668
C         59.94045        69.94754        -0.01176
C         58.78056        69.22709        -0.43939
C         59.98786        71.36165        -0.02208
C         58.83243        72.08841        -0.67386
C         59.93921        74.23282         0.03193
C         58.76043        73.56132        -0.30745
C         61.00583        59.18807         1.71134
C         62.02636        61.41008         2.00429
C         61.02412        60.58241         1.46053
C         62.08181        62.80763         1.71358
C         61.00244        63.43022         1.04668
C         62.16591        65.64257         1.48981
C         60.93816        64.88720         1.03869
C         62.28797        67.03015         0.97241
C         60.97619        67.79723         0.83858
C         62.27052        69.89017         0.97659
C         61.22135        69.16063         0.16083
C         62.23885        71.39658         1.02853
C         61.11617        72.09088         0.37919
C         62.33037        74.20666         0.69227
C         61.15114        73.53090         0.33313
C         63.27277        63.53919         2.06005
C         64.59931        65.64473         2.06721
C         63.39870        64.90990         1.85074
C         64.70047        67.03641         1.85980
C         63.58907        67.74638         1.18178
C         64.64942        69.93189         1.68138
C         63.55656        69.21951         1.23303
C         64.64461        71.38761         1.65646
C         63.49968        72.10262         1.26591
C         64.71234        74.21613         1.40279
C         63.52333        73.52598         1.10390
C         65.81763        67.79968         2.23842
C         66.98478        69.95945         2.45904
C         65.84832        69.22077         2.11571
C         67.01804        71.38414         2.36229
C         65.84497        72.09713         1.95194
C         67.07637        74.21225         2.14972
C         65.87082        73.52305         1.83621
C         68.18619        72.11488         2.66726
C         68.20392        73.51184         2.55991
O         45.73764        39.42434         1.32438
O         63.21884        67.14261        -0.12981
O         61.76740        70.56133         2.16656
O         45.00036        53.56684        -0.83480
O         61.06269        65.46953         2.43543
O         57.52493        58.55215        -1.67037
O         48.65033        67.11046         0.53562
O         37.26975        70.16618        -2.26720
O         40.75625        58.67579        -0.91441
O         32.42929        58.67423        -1.78310
O         56.10614        71.77286        -2.42346
O         42.21371        45.85622         2.96208
O         58.70900        60.74871        -1.39600
O         25.53464        67.47530        -1.00855
O         56.63939        65.40698         0.65243
O         49.62117        60.48484         0.97520
O         30.16875        61.81941        -2.25634
O         36.73998        59.76168        -1.13036
O         52.32580        45.80961         1.39651
O         46.58623        73.21855         0.73675
O         34.63041        65.28561        -2.75842
O         30.99919        69.13624         1.50411
O         42.16408        41.45277         2.35561
O         45.63208        67.16314         0.72093
O         58.59163        67.27592        -1.96310
O         29.89250        64.97021         0.77206
O         33.15908        61.35666         0.95469
O         26.61181        71.19502         2.61210
O         51.87318        69.50998        -2.91626
O         39.70761        63.51747         1.09182
O         45.67908        39.15412        -2.28337
O         50.64595        65.28260        -2.96916
O         50.85447        47.77402        -1.28390
O         46.69627        51.45336         1.76202
O         46.47024        60.54537         1.52013
O         43.46915        67.64142        -2.32583
O         48.10037        52.43471        -1.38343
O         46.33407        64.08572        -2.52551
O         40.91287        57.04872         2.27813
O         52.17655        52.45355         1.32303
O         51.82257        71.99221        -2.76772
O         41.64086        51.39456         2.98915
O         39.42237        52.72278         2.79406
O         36.81690        55.52393        -1.07328
O         34.35742        58.90800         1.46387
O         48.70069        56.54405         1.79397
O         34.25591        70.03712        -1.93944
O         29.56168        67.63012        -1.69276
O         35.84037        67.64722        -2.65885
O         41.04928        48.35681         2.96155
O         38.35294        61.52945         1.56584
O         53.94342        63.94453        -2.74944
O         33.28848        70.32488         1.44879
O         54.69990        52.16833        -1.46975
O         38.36785        59.01276         1.97380
O         56.21004        56.38680        -1.73396
O         52.03648        60.79632        -2.58807
O         47.42288        41.37039        -1.89388
O         37.27442        71.43989         1.12363
O         44.96916        49.12860        -0.67821
O         42.69993        71.21850         1.54297
H         43.52823        70.78678         1.84509
O         60.46350        68.08245         2.15539
H         60.42016        67.22309         2.64288
O         48.14464        58.85907         2.31592
H         48.13204        59.82696         2.48762
O         43.48294        53.16044         2.92660
H         43.13310        52.43078         3.49488
O         52.55439        62.83406         0.46462
H         51.73585        62.41313         0.80561
O         41.41864        38.82986         2.26232
H         41.71261        39.65560         2.72245
O         59.03533        72.00870        -2.10564
H         59.85128        72.50183        -2.32972
O         45.60823        45.56606         2.89483
H         44.80382        45.22715         3.34455
O         34.12942        62.84120        -2.77374
H         34.48474        63.57873        -3.32999
O         27.41896        71.80055        -0.88714
H         28.04015        71.43371        -1.55122
O         50.44143        43.89796         2.20451
H         51.25696        44.39368         2.44506
O         49.39111        60.80926        -2.64309
H         50.06397        60.95226        -3.34671
O         57.24526        71.46971         1.05110
H         57.99641        71.06455         1.53596
O         58.97417        62.63480         1.95028
H         58.93097        63.55520         2.29048
O         39.98885        61.20747        -1.66055
H         40.16980        60.25025        -1.83709
O         61.76119        68.98427        -1.16429
H         61.11694        68.48141        -1.70633
O         28.42863        63.71219        -2.35702
H         28.68720        62.92196        -2.88666
O         48.03239        69.67182         1.38128
H         48.17730        68.69935         1.50158
O         42.30620        48.42391        -0.44158
H         43.09888        48.72015        -0.95684
O         37.39066        66.00283         0.82615
H         37.83450        65.28815         1.33598
H         23.19623        74.99627         2.73463
H         25.56378        75.09473         2.11431
H         27.99723        75.19852         1.43628
H         30.45015        75.20620         1.15129
H         32.88246        75.24193         0.89825
H         35.32860        75.36517         0.48424
H         37.85634        75.38116         0.20672
H         40.35266        75.38567        -0.10338
H         42.80302        75.32615        -0.49345
H         45.00135        75.21665        -1.43956
H         47.88174        75.35354        -1.46403
H         50.17582        75.37940        -0.86822
H         52.67165        75.31793        -0.82165
H         55.05034        75.30258        -0.66390
H         57.48959        75.31264        -0.20715
H         59.91723        75.32481         0.17020
H         62.34308        75.30641         0.65644
H         64.74507        75.31147         1.30527
H         67.10638        75.30781         2.06315
H         22.15799        69.18669         1.87625
H         20.98675        71.28606         2.48476
H         21.07075        73.72829         2.96609
H         24.56849        64.90031         0.87639
H         23.30777        67.09351         1.40707
H         26.92253        60.74917         0.17280
H         25.78647        62.85453         0.49993
H         29.43973        56.40129        -0.14786
H         28.14010        58.55586        -0.04975
H         31.95319        52.19871         0.32312
H         30.71163        54.30282         0.01044
H         34.41298        47.98661         0.78005
H         33.19623        50.08198         0.62049
H         36.89271        43.73950         0.67790
H         35.64337        45.85370         0.81685
H         39.28724        39.50782         0.21540
H         38.10446        41.66569         0.38167
H         41.52365        35.28349        -0.80885
H         40.43803        37.23367         0.19695
H         44.76926        32.14787        -2.44749
H         42.68817        33.24299        -1.64370
H         46.90646        33.41014        -2.58449
H         48.22462        35.43810        -2.15024
H         49.54723        37.48577        -1.70044
H         50.88285        39.55044        -1.18296
H         52.16664        41.59419        -0.84015
H         53.43958        43.43736        -0.73256
H         54.81227        45.89123        -0.86939
H         56.12536        47.87336         0.20807
H         57.24459        50.01231         0.78305
H         58.25355        52.17122         1.49546
H         59.36405        54.32940         1.92139
H         60.51380        56.55539         2.26843
H         61.70083        58.77440         2.45664
H         62.82034        60.96321         2.62006
H         64.13549        62.96861         2.43500
H         65.47259        65.10577         2.46520
H         66.68990        67.29168         2.67729
H         67.88931        69.43170         2.79737
H         69.09046        71.57815         2.98808
H         69.12614        74.05930         2.80029
