         268
 CSIRO Nanostructure Databank - Neutral Graphene Oxide Data Set
C        -11.07404         0.44122        -0.19930
C         -9.84026         1.27249        -0.21997
C         -8.55516         0.58079         0.11155
C         -7.40446         1.41561         0.62220
C         -6.06931         0.70078         0.42947
C         -4.85392         1.51139         0.78119
C         -3.48464         0.80914         0.88624
C         -2.48629         1.42967        -0.09610
C         -1.18778         0.70245        -0.39188
C          0.09128         1.41873         0.05491
C          1.40625         0.67837        -0.26734
C          2.63655         1.43998        -0.66082
C          3.76267         0.78223        -1.45820
C          5.09439         1.48692        -1.17340
C          6.28748         0.68806        -0.66393
C          7.62340         1.39108        -0.83367
C          8.81152         0.64644        -0.33850
C          9.92947         1.36795         0.25906
C         10.87967         0.70500         1.16623
C         -9.89066         2.75258        -0.05717
C         -8.76157         3.49770         0.01208
C         -7.44283         2.80086        -0.01380
C         -6.18092         3.58794        -0.04217
C         -4.90930         2.97790         0.46871
C         -3.67272         3.72732         0.12239
C         -2.48494         2.91415        -0.26940
C         -1.17571         3.63538        -0.49887
C          0.12093         2.89696        -0.39002
C          1.43480         3.63433        -0.05659
C          2.56197         2.93908        -0.82780
C          3.85360         3.65525        -1.14445
C          5.11947         2.85258        -1.17884
C          6.39688         3.62407        -1.09889
C          7.68862         2.86362        -0.96954
C          8.98610         3.60518        -0.61383
C          9.94568         2.73963         0.19210
C         -8.80565         5.00762         0.18137
C         -7.50791         5.76279        -0.07905
C         -6.22690         5.06684        -0.11957
C         -5.04096         5.74783        -0.27858
C         -3.76258         5.03951        -0.28008
C         -2.48999         5.75979        -0.58935
C         -1.23016         5.08846        -0.02466
C          0.06679         5.88536        -0.32554
C          1.37136         5.14587        -0.35600
C          2.60976         5.82244        -0.89517
C          3.91357         5.09984        -0.78089
C          5.07339         5.77410        -0.57091
C          6.38179         5.07095        -0.69438
C          7.54765         5.58058         0.07962
C          8.70576         4.89207         0.14084
C         -7.55043         7.11971        -0.13288
C         -6.34892         8.01417        -0.38273
C         -5.10198         7.17395        -0.69132
C         -3.84590         7.87221        -1.07116
C         -2.49224         7.24359        -0.83361
C         -1.28393         7.98425        -0.20606
C         -0.01627         7.32162        -0.87848
C          1.31748         8.03121        -0.78317
C          2.61790         7.32080        -0.82797
C          3.87573         8.06463        -0.46676
C          5.14081         7.24823        -0.38710
C          6.30238         7.77318         0.42963
C          7.32815         6.79010         0.97109
C         -6.10942         8.94569         0.80972
C         -5.02193         9.71384         1.04673
C         -3.79271         9.72511         0.25247
C         -2.54064         9.97178         0.69685
C         -1.30398         9.60205        -0.11895
C         -0.08286        10.02505         0.67015
C          1.21272         9.76766         0.24022
C          2.43204         9.75852         0.94209
C          3.73896         9.31795         0.41416
C          4.91222         9.66708         1.25434
C          6.07669         8.99355         1.23816
C        -11.05717        -0.85079         0.16389
C         -9.85317        -1.52621         0.78423
C         -8.54917        -0.85022         0.47386
C         -7.34690        -1.52671         0.58450
C         -6.04924        -0.79270         0.50224
C         -4.85784        -1.47754         1.16054
C         -3.53292        -0.74656         0.79768
C         -2.41548        -1.51109         0.14632
C         -1.23932        -0.78245        -0.47883
C          0.05305        -1.55105        -0.43942
C          1.36164        -0.82648        -0.39886
C          2.69182        -1.54839        -0.65988
C          3.82065        -0.75086        -1.33000
C          5.11934        -1.51051        -1.24763
C          6.37680        -0.78692        -1.02350
C          7.53516        -1.47440        -0.62809
C          8.75954        -0.71603        -0.47069
C         10.17987        -1.67915         0.97022
C         10.93802        -0.59548         1.57651
C         -9.76799        -3.00929         0.58319
C         -8.56073        -3.67776         0.56055
C         -7.30598        -2.95436         0.60051
C         -6.03591        -3.64425         0.55827
C         -4.85717        -2.98738         0.88117
C         -3.50649        -3.68801         0.94591
C         -2.63903        -3.00926        -0.16039
C         -1.30704        -3.71805        -0.50437
C         -0.04376        -2.98229        -0.87991
C          1.24186        -3.72746        -1.19509
C          2.55508        -2.96616        -1.25110
C          3.82307        -3.75194        -1.11190
C          5.12223        -2.99854        -0.97285
C          6.29663        -3.63920        -0.32276
C          7.40364        -2.75312         0.21437
C          8.60647        -3.56730         0.72329
C          9.63771        -2.81573         1.48309
C         -8.53931        -5.12582         0.50383
C         -7.37649        -5.82694         0.36214
C         -6.06027        -5.10954         0.16204
C         -4.88652        -5.90994         0.64877
C         -3.57952        -5.20977         0.79092
C         -2.31992        -5.94328         0.38566
C         -1.12998        -5.15874        -0.11423
C          0.07036        -5.91913        -0.58686
C          1.25710        -5.22609        -1.20458
C          2.60822        -5.98339        -1.11389
C          3.61802        -5.07979        -0.36262
C          4.91471        -5.78718         0.04349
C          6.18750        -5.03966         0.18817
C          7.50104        -5.81932         0.19493
C          8.58839        -4.92567         0.76521
C         -7.38048        -7.26513         0.19948
C         -6.23180        -7.96282        -0.06064
C         -4.94513        -7.18053        -0.17484
C         -3.73847        -8.06064         0.08059
C         -2.39225        -7.39978         0.08526
C         -1.37907        -8.10656        -0.84344
C         -0.01745        -7.39783        -0.85345
C          1.26954        -8.15288        -0.68627
C          2.48306        -7.32310        -0.37867
C          3.72007        -7.99763         0.07728
C          5.08627        -7.31097        -0.15432
C          6.16131        -7.84287         0.78656
C          7.30208        -7.12437         0.95300
C         -6.21617        -9.36989        -0.42944
C         -5.07654       -10.09855        -0.55909
C         -3.77776        -9.53871        -0.12741
C         -2.46874       -10.24984        -0.22262
C         -1.29634        -9.57957        -0.41254
C          0.00234       -10.20203        -0.16550
C          1.20683        -9.56193        -0.22620
C          2.44474       -10.16995         0.42802
C          3.80953        -9.51767         0.05697
C          4.89958        -9.95810         1.02280
C          5.95723        -9.17922         1.33824
O         -4.96965        -6.52242        -1.50355
O         -2.82870        -3.48051         2.24488
O          1.05036        -4.51915        -2.43105
O         -0.01343        -5.44013         0.79795
O         -8.90854         0.83277        -1.28208
O         -3.81152        -3.61201         3.30015
H         -4.00406        -4.58847         3.30147
O         -0.42922         3.27191        -1.68165
O          1.33235         9.31772        -1.16135
O         -1.28704         7.59082         1.18826
H         -0.71269         8.22168         1.68065
O          7.86477         1.99385        -2.15140
O          0.75602        -7.82153        -2.00735
O          4.41688        -1.26546        -2.53765
O         -2.94549         1.12834         2.17494
H         -3.39285         0.57389         2.84831
O         -4.29730        -5.83906         1.94205
O         -5.05029         2.47970         1.85925
O          2.81410         3.41913        -2.15735
O          5.35274        -5.30918         1.35725
O         -6.70583         2.93907        -1.25910
O         -5.85222        -0.10025        -0.76615
O         -7.60548         1.56457         2.04466
H         -6.79849         1.99879         2.41718
O          2.53310         6.58950        -2.12444
O          5.46743        -7.58683        -1.47036
O         -5.05850        -1.27224         2.58028
H         -4.50772        -1.94438         3.05915
O          2.46233         1.01989         0.70853
O          6.18764        -3.62821        -1.77600
O         -2.98270         2.00697        -1.32562
O         -3.93670        -8.91624         1.23235
O         -0.03705         1.44471         1.48702
H          0.86856         1.55150         1.86269
O         -6.65497         8.83847        -1.51984
H         -6.04779         8.56343        -2.24866
O         -5.77022        -5.24871        -1.31284
O         -2.23995         6.29394        -1.91282
O          3.27098        -3.45460        -2.42474
O          4.16239        -9.87109        -1.28153
H          4.78178        -9.15586        -1.62491
O          7.82230        -6.15838        -1.17289
H          7.07294        -6.71819        -1.52179
O         -1.36355         4.94188         1.39850
H         -1.34672         5.84509         1.79532
O          1.72757         3.49429         1.33846
H          1.12772         4.10192         1.82868
O         -1.02798        -3.32657        -1.88985
O         -2.41119        -1.24459         1.57472
O          0.75251        -1.40728         0.82509
O          2.94140        -4.67985         0.85139
H          3.59142        -4.74186         1.59187
O          3.98072         9.38767        -1.03294
O          2.86342        -7.36761         1.04955
O          6.58354         4.68671        -2.09379
O          6.82984         6.34202         2.24351
H          7.48862         5.73689         2.64216
O         -1.30686         0.02977        -1.68130
O         -1.91746        -6.96599         1.36471
O         -4.64187         7.31230        -2.11127
O          0.93833         5.89081         0.84578
O         -1.31171        10.11573        -1.44723
H         -2.24783        10.17609        -1.74513
O          6.93326        -1.93948         1.28900
O          6.29543         7.88883        -1.01187
O          9.92766        -1.46526        -0.40575
O        -10.04899        -1.34432         2.24425
H         -9.27498        -1.73707         2.70241
O          3.25595        -1.77278         0.66414
H          2.51609        -1.95445         1.29004
O         -1.96607        -8.01393        -2.09974
O          3.07389        -6.26786        -2.42352
H          2.79259        -5.52991        -3.01312
O         -9.17703         5.30079         1.54101
H         -9.96871         4.77094         1.76797
O          9.65483         3.95872        -1.84526
H          9.38824         3.28682        -2.51381
O         -3.47430        -3.11113        -1.32300
H         -2.91406        -2.98238        -2.12397
O          6.04458         0.63722         0.78326
H          6.29584        -0.27160         1.12323
O         -3.89821         9.29300        -1.09042
O          2.27805       -10.03790         1.84499
H          2.25738        -9.07485         2.05315
O          3.41777         1.03582        -2.83253
H          3.96087         0.43300        -3.39110
O         -0.10592         7.35185        -2.31039
H         -0.34332         8.26435        -2.59202
H         11.60328        -0.83894         2.42044
H         11.54829         1.40978         1.68867
H         10.76365         3.27810         0.69793
H          9.53242         5.29940         0.74682
H          8.30895         7.32193         1.12778
H          6.88583         9.29720         1.91966
H          4.79526        10.52426         1.93438
H          2.44255        10.22538         1.93720
H         -0.21962        10.38728         1.69781
H         -2.39465        10.31466         1.73132
H         -5.00469        10.32297         1.96481
H         -6.93777         9.01838         1.53318
H         -8.52175         7.63059        -0.04945
H         -9.60231         5.41931        -0.50517
H        -10.88077         3.23544        -0.02660
H        -12.00661         0.89776        -0.56632
H        -11.98744        -1.43825         0.13230
H        -10.70293        -3.58993         0.59673
H         -9.49965        -5.65987         0.55087
H         -8.34806        -7.78686         0.24872
H         -7.18691        -9.83701        -0.65492
H         -5.12057       -11.13974        -0.90958
H         -2.45636       -11.32277         0.02905
H         -0.02237       -11.23706         0.21353
H          2.49858       -11.26308         0.19989
H          4.82382       -10.96924         1.44999
H          6.73074        -9.56538         2.02126
H          8.13066        -7.52708         1.55775
H          9.43886        -5.43778         1.24589
H          9.86683        -3.13452         2.51170
