         324
 CSIRO Nanostructure Databank - Neutral Graphene Oxide Data Set
C         30.45037        57.09895        -1.31606
C         30.45991        58.49618        -1.47313
C         29.31599        59.20553        -1.95021
C         30.55711        61.29436        -1.91627
C         29.37079        60.57303        -2.15196
C         32.86857        52.86736        -0.56229
C         32.82799        54.28236        -0.54388
C         31.64351        54.98556        -0.85060
C         32.79303        57.14572        -0.55414
C         31.61091        56.39965        -0.90801
C         32.77655        58.56368        -0.64309
C         31.65485        59.23588        -1.16690
C         32.93678        61.37712        -1.26857
C         31.70760        60.65473        -1.43123
C         35.30387        48.59482        -0.11522
C         35.31467        50.02440        -0.20588
C         34.10598        50.74139        -0.37603
C         35.29416        52.88476        -0.12483
C         34.07247        52.15334        -0.35113
C         35.27328        54.30275        -0.03015
C         34.02579        55.02495        -0.22038
C         35.15856        57.16934         0.28215
C         33.97026        56.42515        -0.17463
C         35.20899        58.66216         0.12779
C         33.97003        59.36756        -0.29556
C         35.33102        61.43989        -0.62439
C         34.08727        60.76304        -0.79031
C         37.77445        44.35863         0.24495
C         37.74086        45.75118         0.43836
C         36.49823        46.45641         0.27491
C         37.76715        48.55295         0.24924
C         36.45877        47.85204         0.16635
C         37.80189        50.03476         0.09211
C         36.53379        50.75515        -0.07908
C         37.75912        52.90215         0.10043
C         36.53017        52.17624        -0.01640
C         37.73619        54.29401         0.17187
C         36.49871        54.98988         0.15057
C         37.71613        57.22872         0.40645
C         36.46125        56.44123         0.39689
C         37.73641        58.59129         0.26259
C         36.52179        59.26525        -0.33626
C         37.75159        61.44717        -0.13350
C         36.52568        60.77540        -0.29608
C         40.20853        40.10414        -0.13288
C         40.21392        41.51546         0.09533
C         39.00921        42.24903         0.06542
C         40.20528        44.32998         0.64106
C         38.99274        43.63936         0.32259
C         40.18996        45.75304         0.89504
C         38.94836        46.44084         0.76515
C         40.10523        48.66027         1.30273
C         38.79052        47.89172         1.15298
C         40.16154        50.09444         0.89783
C         39.02604        50.76393         0.47919
C         40.26141        52.94592         0.52996
C         39.08577        52.18086        -0.01958
C         40.26386        54.33901         0.51516
C         39.02334        55.08058         0.10626
C         40.20611        57.23750         0.88955
C         38.92872        56.46070         0.72778
C         40.16854        58.67406         0.59638
C         38.98581        59.32845         0.32989
C         40.19084        61.48777         0.22540
C         38.98077        60.77938         0.11051
C         42.65122        35.83858        -0.78387
C         42.65255        37.11777         0.00688
C         41.41689        37.95010        -0.22773
C         42.67634        40.08519        -0.05799
C         41.39516        39.33106        -0.13490
C         42.70137        41.46134         0.58319
C         41.42142        42.22368         0.38747
C         42.67570        44.28124         0.98008
C         41.43198        43.60425         0.67269
C         42.63379        45.65484         1.61846
C         41.38367        46.42214         1.25333
C         42.67652        48.62029         1.32785
C         41.39667        47.88462         1.43743
C         42.62425        50.02349         1.21568
C         41.42987        50.77238         0.98555
C         42.65562        52.95304         0.93835
C         41.45332        52.21950         0.84127
C         42.69783        54.36766         0.86816
C         41.46791        55.07488         0.74815
C         42.67829        57.21148         0.92453
C         41.49245        56.50812         0.79673
C         42.61316        58.70940         1.12760
C         41.49131        59.32826         0.28992
C         42.64399        61.51295         0.54592
C         41.44333        60.83666         0.40628
C         45.05066        33.33992        -2.19777
C         43.85136        33.91910        -1.74621
C         45.12684        35.78140        -0.67207
C         43.82997        35.17719        -1.08159
C         45.14181        37.23532        -0.38626
C         43.94937        37.87235        -0.17010
C         45.18811        39.98261         0.54090
C         43.95567        39.34477        -0.05681
C         45.20593        41.49618         0.41446
C         43.93024        42.27497         0.13539
C         45.12874        44.32555         0.97716
C         43.90563        43.65068         0.76976
C         45.13272        45.70041         1.35032
C         43.92747        46.43713         1.44165
C         45.15278        48.58128         1.34479
C         43.92646        47.88593         1.41857
C         45.19150        50.04992         1.39064
C         43.88292        50.78374         1.36637
C         45.21610        52.94141         0.96205
C         43.92035        52.20503         0.92061
C         45.19638        54.41504         1.05003
C         43.94367        55.09500         0.94280
C         45.15693        57.24845         1.04580
C         43.93557        56.52090         0.97398
C         45.14218        58.70504         0.96086
C         43.92321        59.40956         0.86787
C         45.13344        61.50981         0.59815
C         43.90639        60.81492         0.67927
C         46.28121        33.94757        -2.03200
C         47.60180        36.00383        -1.31082
C         46.42476        35.14841        -1.21211
C         47.62132        37.32290        -0.82901
C         46.40096        37.97339        -0.39100
C         47.64660        40.05648        -0.00403
C         46.43446        39.32024        -0.01267
C         47.65663        41.43127         0.39262
C         46.38853        42.15478         0.52299
C         47.60559        44.17877         1.37226
C         46.43112        43.67350         0.52167
C         47.70829        45.68971         1.28553
C         46.44157        46.36753         1.55684
C         47.69823        48.55310         1.09431
C         46.43225        47.89430         1.53020
C         47.69140        50.07198         0.97051
C         46.44323        50.80295         1.18180
C         47.69413        52.91364         1.24249
C         46.47151        52.19598         1.22372
C         47.67443        54.39812         1.53385
C         46.39453        55.11328         1.15882
C         47.63612        57.24457         1.00496
C         46.40122        56.54658         1.09644
C         47.67212        58.74071         1.18542
C         46.35658        59.42702         0.91230
C         47.62566        61.54372         0.58616
C         46.35530        60.82793         0.71813
C         48.82979        38.06852        -0.82271
C         50.07857        40.15525        -0.36593
C         48.86958        39.41055        -0.39597
C         50.10088        41.48121         0.08602
C         48.87562        42.10807         0.49882
C         50.20682        44.23577         1.03669
C         48.91618        43.45728         1.09646
C         50.17072        45.70468         1.14651
C         48.94961        46.39072         1.28743
C         50.17907        48.58344         1.17327
C         48.97983        47.85062         1.26486
C         50.13914        50.03565         1.18827
C         48.96467        50.77633         1.14658
C         50.14080        52.97109         1.18627
C         48.93546        52.22471         1.24286
C         50.12869        54.38906         0.99850
C         48.91888        55.10975         1.07101
C         50.08130        57.23482         0.64956
C         48.87901        56.53651         0.89570
C         50.05000        58.63121         0.18022
C         48.78454        59.40601         0.39689
C         50.09895        61.64830         0.13649
C         48.80238        60.89479         0.40187
C         51.30339        42.26061        -0.00037
C         52.47571        44.41110         0.01565
C         51.35774        43.60239         0.34831
C         52.54359        45.76862         0.33414
C         51.50033        46.40759         1.22944
C         52.66991        48.60498         0.89658
C         51.45632        47.91263         1.07106
C         52.66614        50.03879         1.10026
C         51.41241        50.73914         1.38090
C         52.65175        52.96161         0.87622
C         51.42706        52.28649         1.34069
C         52.59443        54.38542         0.65028
C         51.38476        55.07428         0.81648
C         52.65367        57.28465         0.57892
C         51.35974        56.54360         0.83249
C         52.62282        58.69013         0.11936
C         51.31713        59.41125        -0.18066
C         52.61920        61.53296         0.04580
C         51.35182        60.81893         0.47325
C         53.64651        46.54028        -0.05818
C         55.00526        48.50264        -0.22034
C         53.82129        47.90052         0.29232
C         55.50422        49.76534         0.15244
C         53.80796        50.83598         1.13120
C         55.01651        52.78483         0.05911
C         53.83434        52.22112         0.78386
C         54.99358        54.30024        -0.11508
C         53.82603        55.10094         0.35585
C         55.10058        57.22468         0.03685
C         53.85294        56.47796         0.30299
C         55.04978        58.67449        -0.27522
C         53.79020        59.37526        -0.13010
C         55.00513        61.50391        -0.56076
C         53.77648        60.83971        -0.26641
C         56.35129        50.65325        -0.50576
C         57.39288        52.83751        -0.69656
C         56.30838        52.07731        -0.26765
C         57.42457        54.27123        -0.68751
C         56.27256        54.97448        -0.36963
C         57.41748        57.10416        -1.05686
C         56.32875        56.44160        -0.28676
C         57.37597        58.59610        -1.16950
C         56.18350        59.33929        -0.68814
C         57.43284        61.44162        -1.00942
C         56.20434        60.79259        -0.77623
C         58.65419        54.99622        -1.02304
C         59.83096        57.09929        -1.83537
C         58.68121        56.34636        -1.19773
C         59.84498        58.59252        -1.54579
C         58.65747        59.31097        -1.31659
C         59.89797        61.41231        -1.31442
C         58.65989        60.73045        -1.20105
C         61.05266        59.30275        -1.64167
C         61.07303        60.69946        -1.51926
O         39.13573        55.44049        -1.38574
O         38.18470        49.08012        -1.03683
O         34.42247        59.33500         1.13250
O         49.79659        43.51775         2.27373
O         49.02259        58.78455        -0.90297
O         45.93761        34.97025         0.19570
O         40.64608        48.39866         2.63841
O         57.01416        57.72220        -2.33432
O         39.44340        56.72224         2.05719
O         44.65293        52.44224        -0.33277
O         44.52777        50.56297         2.65410
O         52.14925        57.14188         1.96401
O         51.50731        51.54759         2.60771
O         54.55696        53.40494        -1.20525
O         56.14512        56.96214         1.08013
O         43.46688        39.97459        -1.30605
O         46.51846        47.18411         2.79589
O         47.59604        49.18834        -0.22381
O         35.63990        56.74557         1.60139
O         55.03609        50.24360         1.39073
O         40.20615        54.68753        -1.98727
H         39.84168        53.75939        -2.04572
O         45.14646        39.66355         1.96258
H         45.84715        40.18114         2.41188
O         42.86142        41.28022         2.01556
H         42.10070        40.76230         2.35229
O         43.89950        42.54218        -1.29076
H         43.82510        41.66375        -1.74367
O         42.26528        58.95356         2.51926
H         42.91700        58.49188         3.08636
O         42.52796        45.40335         3.07929
H         43.41083        45.11698         3.39859
O         59.67559        56.94334        -3.26242
H         58.76239        57.24276        -3.47813
O         41.80293        59.01458        -1.09815
H         41.13181        59.44382        -1.66835
O         51.31129        59.61198        -1.62328
H         50.46595        59.22937        -1.96305
O         50.15527        62.06962        -1.23133
H         50.55248        61.33068        -1.75191
O         51.97383        46.17921         2.60776
H         52.85170        46.60960         2.69052
O         47.99905        58.98204         2.59552
H         47.33414        58.51602         3.14485
O         51.37050        60.66677         1.90861
H         52.12947        60.09451         2.15213
O         39.34513        52.07214        -1.47967
H         38.82063        51.31296        -1.81938
O         36.55959        58.90661        -1.76380
H         37.39156        59.26169        -2.14245
O         47.70806        54.48917         3.01706
H         48.55016        54.08294         3.31704
O         42.60960        36.73144         1.43730
H         43.42331        36.21769         1.63164
O         47.24244        43.89292         2.74650
H         48.07294        43.95749         3.27318
O         46.65079        44.10773        -0.84438
H         45.88616        43.78519        -1.37395
O         38.14625        47.89987         2.45932
H         38.86989        47.79341         3.12208
H         29.53790        56.53324        -1.55669
H         28.39351        58.64809        -2.16708
H         30.58616        62.37417        -2.12132
H         28.48433        61.10585        -2.52393
H         31.94538        52.30826        -0.77682
H         30.73292        54.41923        -1.09766
H         32.96646        62.43539        -1.57004
H         34.33998        48.07289        -0.21070
H         33.16651        50.18461        -0.50875
H         35.35627        62.53036        -0.77861
H         36.84790        43.82130        -0.00583
H         35.57798        45.87091         0.13080
H         37.76327        62.54620        -0.20681
H         39.23977        39.60047        -0.26472
H         38.06543        41.73431        -0.16635
H         40.16803        62.58813         0.18280
H         41.68764        35.36098        -1.01901
H         40.46146        37.40892        -0.30823
H         42.65730        62.61397         0.52276
H         44.99319        32.40827        -2.77912
H         42.89475        33.43278        -1.98334
H         45.13163        62.59699         0.43053
H         47.16717        33.55526        -2.55171
H         48.50015        35.60179        -1.80360
H         47.59632        62.64396         0.56767
H         49.76165        37.57561        -1.13685
H         51.01221        39.68024        -0.70115
H         50.10411        62.57311         0.77107
H         52.18723        41.79528        -0.46263
H         53.31029        43.95251        -0.53744
H         52.63652        62.63301         0.08055
H         54.43609        46.05216        -0.65029
H         55.54866        47.93941        -0.99523
H         55.01674        62.60304        -0.60777
H         57.01213        50.29274        -1.30878
H         58.30161        52.30736        -1.01925
H         57.45944        62.54166        -1.01698
H         59.56472        54.40266        -1.19771
H         60.81345        56.64247        -1.55669
H         59.92035        62.50834        -1.23265
H         61.98912        58.75624        -1.82347
H         62.02919        61.23519        -1.59990
