         324
 CSIRO Nanostructure Databank - Neutral Graphene Oxide Data Set
C          1.25037         3.36321         1.02955
C          0.03807         4.04005         1.17724
C          1.13404         6.18301         0.75468
C         -0.02643         5.42476         1.05643
C          1.07638         7.61573         0.67698
C         -0.03749         8.43669         1.04377
C          0.98834        10.51238         0.03003
C         -0.03305         9.80328         0.90252
C          1.08055        12.02411         0.16177
C         -0.08041        12.76359        -0.15130
C          1.19178        14.83387        -0.36405
C         -0.03390        14.12490        -0.40714
C          1.29658        16.24325        -0.70757
C          0.11911        16.97873        -1.01263
C          1.37178        19.06223        -1.14358
C          0.15559        18.33457        -1.23460
C          1.34896        20.51437        -1.21307
C          0.19602        21.23515        -1.61113
C          1.33243        23.37259        -1.28877
C          0.19130        22.62002        -1.64403
C          1.36710        24.84667        -1.47075
C          0.11041        25.62864        -1.59988
C          1.23933        27.78574        -0.95069
C          0.07717        26.95535        -1.42672
C          1.40987        29.05816        -1.73648
C          3.68085         3.29250         0.74999
C          2.44062         4.04076         0.67279
C          3.57840         6.23622         0.34188
C          2.37422         5.47204         0.49653
C          3.58610         7.65170         0.76070
C          2.32591         8.34762         0.38460
C          3.58790        10.57380         0.46888
C          2.34825         9.81564         0.13188
C          3.55257        11.98482         0.54540
C          2.30132        12.70535         0.30412
C          3.58690        14.81764         0.12728
C          2.34653        14.11722         0.05842
C          3.71642        16.11714        -0.37231
C          2.55667        16.91155        -0.73907
C          3.77205        19.16736        -0.73057
C          2.59040        18.35181        -0.94130
C          3.67460        20.53977        -0.46704
C          2.49061        21.26142        -0.81047
C          3.65223        23.43422        -0.38682
C          2.48639        22.69558        -0.83769
C          3.71674        24.81881        -0.43046
C          2.60140        25.58801        -1.01308
C          3.73006        27.76025        -0.59457
C          2.55721        27.05577        -0.82775
C          3.79993        29.15691        -1.08810
C          2.60279        29.67978        -1.75007
C          6.22119         3.34807         0.39064
C          4.86464         3.66215         0.11774
C          6.04004         6.38555        -0.08080
C          4.76126         5.76385        -0.20474
C          6.10120         7.71805         0.30293
C          4.86314         8.41674         0.70082
C          6.04076        10.59153         0.66128
C          4.81416         9.89123         0.59819
C          5.99709        12.00026         0.77183
C          4.76725        12.68391         0.76649
C          6.04225        14.94321         0.91798
C          4.74822        14.16942         0.77127
C          6.19488        16.16038         0.09117
C          5.07412        16.57000        -0.59354
C          6.25614        19.15250        -0.26817
C          5.11123        18.64041        -0.83194
C          6.15458        20.48760         0.36713
C          4.79247        21.21430         0.21417
C          5.99199        23.45993         0.67906
C          4.72955        22.70582         0.31625
C          6.08966        24.89015         0.33606
C          4.89828        25.56347        -0.04522
C          6.09189        27.62726         0.23679
C          4.89467        26.99069        -0.13879
C          6.20232        29.66212        -0.65083
C          4.93227        29.93854        -1.26268
C          8.58555         3.53736        -0.04334
C          7.32685         4.14300        -0.02651
C          8.54127         6.36840        -0.28280
C          7.25317         5.59872        -0.54851
C          8.54158         7.78333        -0.06087
C          7.31869         8.47558         0.22942
C          8.53800        10.56891         0.50961
C          7.30489         9.86741         0.48871
C          8.52447        11.99991         0.89087
C          7.27530        12.77692         0.57971
C          8.46422        14.86886         1.29372
C          7.29888        14.18497         1.12925
C          8.75331        16.13992         0.51498
C          7.52429        16.81876        -0.09732
C          8.76179        19.18083         0.04274
C          7.52116        18.36726        -0.24686
C          8.66324        20.67071         0.28446
C          7.36508        21.28895         0.56652
C          8.54850        23.50841         1.09958
C          7.26130        22.69496         0.96104
C          8.58403        24.90025         0.65120
C          7.34762        25.57172         0.36292
C          8.57462        27.71495        -0.16368
C          7.33667        26.98880         0.22382
C          8.63657        29.17966        -0.51453
C          7.48520        29.88185        -1.07775
C         10.98658         3.56604        -0.59650
C          9.78765         4.23548        -0.37656
C         11.00192         6.40472        -0.41570
C          9.75958         5.68914        -0.37753
C         11.00246         7.82489        -0.29265
C          9.76700         8.51522        -0.06267
C         10.99842        10.67712         0.24166
C          9.75354         9.92521         0.21094
C         11.03711        12.00546         0.59339
C          9.80686        12.76886         0.89111
C         10.99612        14.90080         1.65079
C          9.78702        14.29050         0.88405
C         11.13128        16.38024         1.34108
C          9.83933        17.05716         1.07097
C         11.23565        19.21081         0.88104
C          9.92942        18.52104         0.72597
C         11.25406        20.67964         0.79203
C          9.94245        21.40302         0.63464
C         11.12728        23.54903         1.34411
C          9.85628        22.77450         1.21375
C         11.03766        24.99112         1.02117
C          9.84313        25.58038         0.59013
C         11.21406        27.64183        -0.17294
C          9.86415        26.94636        -0.01546
C         11.12185        29.15016        -0.28753
C          9.87045        29.78440        -0.59200
C         13.39842         3.60397        -1.13100
C         12.21321         4.27463        -0.80488
C         13.45424         6.42028        -0.74957
C         12.22019         5.70573        -0.64168
C         13.44736         7.86007        -0.56633
C         12.23912         8.52939        -0.35249
C         13.54262        10.58291         0.24633
C         12.24737        10.03848        -0.32674
C         13.60559        11.98312         0.74073
C         12.29789        12.67595         0.97564
C         13.61258        14.81536         1.44702
C         12.29141        14.08899         1.44640
C         13.58089        16.30606         1.62317
C         12.30962        17.06919         1.46494
C         13.61271        19.26943         1.54597
C         12.38163        18.53411         1.31841
C         13.65839        20.68984         1.39261
C         12.45336        21.42164         1.23583
C         13.64372        23.56637         1.30684
C         12.44241        22.84120         1.24306
C         13.59601        25.04437         1.45122
C         12.27109        25.76520         1.23351
C         13.57899        27.95231         0.70624
C         12.27756        27.21325         0.83047
C         13.56609        29.25359        -0.00734
C         12.29487        29.86825        -0.28849
C         15.81902         3.62553        -1.64364
C         14.63413         4.30280        -1.27824
C         15.87543         6.50430        -1.39809
C         14.63744         5.72080        -1.06104
C         15.94658         7.81577        -0.65286
C         14.70662         8.58786        -0.52777
C         16.03071        10.66888        -0.15808
C         14.78888         9.92899        -0.20201
C         16.03880        12.09120         0.10750
C         14.84166        12.78932         0.57058
C         15.95394        14.98869         0.39765
C         14.81131        14.14867         0.83484
C         15.97658        16.51242         0.64262
C         14.87830        17.06336         1.53814
C         16.22980        19.32490         1.72975
C         14.89501        18.55031         1.75727
C         16.14101        20.75420         1.26092
C         14.90107        21.43360         1.31163
C         16.13231        23.56324         1.09217
C         14.89543        22.86316         1.22838
C         16.17208        25.04577         1.15712
C         14.87946        25.83269         1.32387
C         16.03861        27.84469         0.42549
C         14.86271        27.23142         0.84148
C         16.01479        29.22654        -0.04541
C         14.75480        29.88800        -0.25581
C         18.36434         3.66482        -2.05275
C         17.13369         4.25722        -1.50068
C         18.40545         6.51057        -1.51108
C         17.16878         5.74207        -1.22573
C         18.43806         7.90011        -1.26831
C         17.26193         8.55594        -0.65229
C         18.44474        10.74157        -0.71201
C         17.23348        10.02051        -0.50817
C         18.45566        12.14541        -0.44178
C         17.25033        12.79015        -0.02235
C         18.53438        14.97032         0.09618
C         17.23920        14.26512         0.03993
C         18.60079        16.33732         0.65289
C         17.33637        17.07873         1.03642
C         18.59484        19.21307         0.95545
C         17.39827        18.55375         1.12207
C         18.62341        20.69188         1.15496
C         17.34461        21.44551         1.09036
C         18.59135        23.58745         0.67563
C         17.34929        22.86673         0.95176
C         18.56615        25.00180         0.44148
C         17.35177        25.74274         0.61581
C         18.49435        27.81612        -0.04027
C         17.29986        27.12241         0.36228
C         18.45103        29.21294        -0.33713
C         17.18768        29.88225        -0.36204
C         19.48529         4.40464        -2.24821
C         20.71634         6.58992        -2.23271
C         19.54936         5.83315        -1.98141
C         20.74246         7.96018        -2.00968
C         19.61076         8.64925        -1.50718
C         20.77068        10.86149        -1.40412
C         19.62333        10.08446        -1.20278
C         20.78877        12.23122        -1.12384
C         19.65771        12.89728        -0.63588
C         20.93831        15.05021        -0.26756
C         19.69423        14.31557        -0.27566
C         20.98662        16.38782         0.01092
C         19.82511        17.12608         0.41939
C         20.99432        19.30121         0.27394
C         19.81311        18.51770         0.58240
C         21.03735        20.65022         0.35043
C         19.89873        21.44240         0.85500
C         20.98372        23.59539         0.19494
C         19.81428        22.89475         0.55348
C         20.96064        24.95843        -0.03665
C         19.76114        25.69199         0.08364
C         20.89787        27.85004        -0.47905
C         19.73184        27.12349        -0.14272
C         20.84776        29.21900        -0.72683
C         19.63177        29.90055        -0.67239
O          4.94455        23.20050         1.67275
O          8.90668        20.08149        -1.07816
O          9.41918        18.03411         2.05414
O         10.41482        23.01706         2.53686
O         12.79395        25.50900         2.57897
O          4.25953         7.96637         2.00834
O          4.71252         4.58286        -0.95582
O          9.16607        12.31093         2.15288
O         10.85372        21.32774        -0.50637
O         15.75724        25.58927         2.46690
O         13.74136        15.41004         2.78003
O         18.07405        16.36355         2.05948
O          6.07401        28.97761         0.57088
O          7.75519        17.46126        -1.37072
O         16.77373         7.82560         0.54023
O          2.51835         8.87789        -1.00041
O          9.16756        26.94567        -1.31237
O         12.28130        13.01216         2.43140
O         17.27065         4.83818        -0.11150
O         16.30432        14.76658        -1.02063
O         13.64881        10.83594         1.67439
O          5.10081        14.88259         2.03127
O          7.74737        23.15521         2.27793
O         15.09113        17.58062         2.87183
O          5.17361        20.56811         1.46393
O         12.67350        28.08416         1.90173
O         19.51275        21.12005         2.23766
O          9.59716        15.16873        -0.36767
O          5.21687        17.49575        -1.63580
O          2.38045        25.26024        -2.45769
O         16.63238        19.50095         3.11833
H         16.48325        18.64133         3.57733
O         15.65753        17.14791        -0.63044
H         15.95099        16.52582        -1.34164
O         10.66910        14.85967         3.04837
H         11.04723        14.02736         3.41866
O         15.80684         6.82726        -2.82579
H         14.92211         7.20834        -3.00945
O          0.87459        28.19072         0.41515
H          1.57044        28.80086         0.74059
O         11.75527        27.15366        -1.43839
H         11.00118        27.14055        -2.07333
O          0.47582        10.32316        -1.32211
H          0.95985         9.54349        -1.69173
O          7.35689        12.97784        -0.87633
H          6.59125        13.51782        -1.16609
O          7.14578         5.49678        -2.00106
H          6.30498         5.01619        -2.18175
O         12.28278        10.46737        -1.73352
H         11.48142        10.11449        -2.17560
H          1.28632         2.27622         1.18976
H         -0.87158         3.47400         1.42179
H         -0.98609         5.93585         1.21158
H         -0.91563         7.96168         1.50777
H         -0.91789        10.37271         1.22478
H         -1.03353        12.22827        -0.26188
H         -0.96444        14.63078        -0.69543
H         -0.85428        16.47303        -1.03683
H         -0.78871        18.86185        -1.42128
H         -0.70583        20.70365        -1.94155
H         -0.71362        23.13431        -1.99453
H         -0.80959        25.10098        -1.89167
H         -0.87453        27.49498        -1.54897
H          0.53213        29.51118        -2.21992
H          3.69264         2.42252         1.42450
H          2.70980        30.64150        -2.27529
H          6.44732         2.42624         0.95008
H          4.85136        30.81093        -1.93099
H          8.65929         2.46163         0.18057
H          7.67237        30.56259        -1.92225
H         11.00130         2.46605        -0.60769
H          9.91227        30.84405        -0.88941
H         13.38338         2.51179        -1.26165
H         12.27564        30.94330        -0.52594
H         15.76607         2.56350        -1.92780
H         14.76050        30.89267        -0.70463
H         18.34566         2.60422        -2.34612
H         17.15044        30.93173        -0.69016
H         20.38453         3.92606        -2.66449
H         21.61737         6.08272        -2.60681
H         21.67269         8.50660        -2.21619
H         21.69013        10.40003        -1.78789
H         21.72118        12.78207        -1.30395
H         21.87093        14.53362        -0.52795
H         21.95837        16.89537        -0.04922
H         21.88921        18.77803        -0.08823
H         21.95275        21.16617         0.02968
H         21.94209        23.06646         0.11710
H         21.89861        25.46188        -0.30264
H         21.86774        27.34072        -0.54931
H         21.76927        29.76009        -0.98272
H         19.58672        30.97608        -0.89482
