         314
 CSIRO Nanostructure Databank - Neutral Graphene Oxide Data Set
C         31.17166        56.57873        -2.58126
C         31.16109        57.98973        -2.89817
C         30.27679        58.50556        -3.87236
C         31.43276        60.63365        -3.81954
C         30.40456        59.82439        -4.30580
C         33.55810        52.51413        -1.08417
C         32.87373        53.66751        -0.90659
C         32.07047        54.43275        -1.90778
C         32.96400        56.82043        -0.90545
C         32.08604        55.96491        -1.77031
C         32.97898        58.32013        -1.24059
C         32.15807        58.82401        -2.35361
C         33.43915        60.94555        -2.39663
C         32.33169        60.14668        -2.84541
C         35.41604        48.54232         1.15799
C         35.43596        49.88364         0.91402
C         34.47751        50.56306         0.05875
C         35.19699        52.78360         0.97111
C         34.41533        51.92402        -0.05221
C         35.32433        54.25774         0.62646
C         34.17861        54.96265         0.28412
C         35.36046        57.02808        -0.01001
C         34.18093        56.28682        -0.20753
C         35.35899        58.49025        -0.19796
C         34.15402        59.16030        -0.81725
C         35.57247        61.17724        -1.21033
C         34.37686        60.46557        -1.49312
C         37.81938        44.27278         1.85328
C         37.75308        45.68453         2.10590
C         36.60688        46.38121         1.79817
C         37.69432        48.61677         2.36115
C         36.47903        47.84631         1.93012
C         37.81775        50.04188         1.89416
C         36.62693        50.69986         1.26358
C         37.70734        52.91570         1.42347
C         36.54665        52.16102         1.21524
C         37.73115        54.34849         1.19107
C         36.54401        54.98940         0.72684
C         37.75350        57.16741         0.67757
C         36.55124        56.39691         0.46321
C         37.75127        58.58614         0.40204
C         36.64111        59.21470        -0.12180
C         37.89152        61.31643        -0.44022
C         36.66964        60.60723        -0.54249
C         40.10440        40.20302         0.44550
C         40.16302        41.46833         1.03815
C         39.00105        42.20550         1.33887
C         40.29203        44.18653         2.18265
C         38.99830        43.52986         1.85249
C         40.31165        45.67686         2.45001
C         38.98141        46.38400         2.58654
C         40.29908        48.61215         2.45273
C         38.99187        47.88943         2.63009
C         40.26822        50.06781         1.99399
C         38.95265        50.85614         2.49420
C         39.88149        53.18212         2.40224
C         38.87077        52.31258         2.02148
C         40.08382        54.48386         1.87929
C         38.91648        55.12028         1.36715
C         40.18918        57.26145         1.32521
C         38.93997        56.53215         1.11459
C         40.21472        58.68356         1.04867
C         38.90820        59.42846         0.88175
C         40.25941        61.40908         0.12081
C         39.03700        60.73795         0.13092
C         42.33165        36.12305        -1.32703
C         42.38571        37.49997        -0.91541
C         41.22527        38.17806        -0.44477
C         42.55779        40.16692         0.09974
C         41.28555        39.48767         0.05641
C         42.64749        41.49709         0.58845
C         41.52559        41.95862         1.49171
C         42.70049        44.31618         1.41914
C         41.55450        43.45016         1.86361
C         42.87225        45.67145         2.11660
C         41.55812        46.45450         2.19314
C         42.74409        48.56699         1.74465
C         41.54830        47.83948         2.13342
C         42.76085        50.01676         1.68039
C         41.61378        50.73232         2.21821
C         42.66221        52.95380         1.82539
C         41.74340        52.05927         2.52454
C         42.59468        54.44161         1.94295
C         41.38046        55.14023         1.85891
C         42.64224        57.31525         1.86566
C         41.37423        56.57654         1.65336
C         42.64309        58.81619         1.54680
C         41.39280        59.41278         1.05934
C         42.67388        61.46131         0.53380
C         41.45394        60.78975         0.59043
C         44.65322        33.32386        -2.20163
C         43.46771        33.99604        -1.92390
C         44.72512        36.11887        -1.98100
C         43.45380        35.40935        -1.74458
C         44.80332        37.55139        -1.50454
C         43.62677        38.18467        -0.89694
C         44.96710        40.21728        -0.39738
C         43.72747        39.51710        -0.39536
C         45.02642        41.58088        -0.01755
C         43.83709        42.21455         0.46735
C         45.17106        44.36511         0.74707
C         43.87887        43.66000         0.76597
C         45.18845        45.75511         1.00857
C         44.01090        46.44910         1.48799
C         45.09571        48.58250         0.88850
C         43.92656        47.84533         1.42475
C         45.07983        50.07496         0.77804
C         43.88301        50.75381         1.29679
C         45.04846        53.00742         0.87144
C         43.80800        52.22400         1.17041
C         45.16331        54.37522         1.46168
C         43.89821        55.13551         1.89440
C         45.14087        57.25878         1.52578
C         43.94538        56.59875         1.77970
C         45.17052        58.75708         1.51595
C         43.91671        59.49062         1.28329
C         45.14748        61.53359         0.60988
C         43.92469        60.82308         0.82949
C         45.89823        33.97852        -2.28100
C         47.22799        36.06681        -2.14484
C         45.99703        35.37302        -2.12715
C         47.36024        37.42145        -1.73865
C         46.15226        38.05977        -1.15107
C         47.46383        40.21136        -0.93940
C         46.21262        39.46714        -0.65207
C         47.47947        41.64899        -0.54539
C         46.26547        42.30042        -0.01528
C         47.59685        44.39091         0.20512
C         46.34748        43.67248         0.34470
C         47.60571        45.80418         0.39612
C         46.41502        46.45412         0.77417
C         47.66272        48.69249         0.67735
C         46.42010        47.90461         0.98292
C         47.55974        50.16501         0.48270
C         46.35805        50.81669         0.63279
C         47.60315        53.02440         0.68027
C         46.33079        52.28745         0.55244
C         47.59574        54.41315         0.83423
C         46.37610        55.14531         1.12331
C         47.59024        57.24095         0.79777
C         46.36083        56.52918         1.23948
C         47.62184        58.73029         0.71540
C         46.43933        59.50276         1.19018
C         47.61943        61.55229         0.44903
C         46.39654        60.91315         0.72833
C         48.58535        38.09593        -1.66715
C         49.92644        40.11968        -1.14545
C         48.72224        39.44814        -1.19353
C         50.05633        41.48939        -0.59269
C         48.79763        42.25762        -0.21633
C         50.03442        44.41083        -0.24789
C         48.81722        43.72384        -0.10258
C         50.04333        45.84634        -0.21879
C         48.81628        46.56017         0.09993
C         49.92623        48.72449        -0.42250
C         48.80810        47.95325         0.12881
C         49.95763        50.21279        -0.24373
C         48.77146        50.90991         0.26146
C         50.09110        52.99376         0.53829
C         48.82000        52.29840         0.46014
C         50.07466        54.38740         0.77939
C         48.86282        55.11511         0.82964
C         50.10302        57.24756         0.60903
C         48.87723        56.52921         0.81643
C         50.07449        58.70371         0.48292
C         48.91790        59.43791         0.64063
C         50.07729        61.59893         0.32822
C         48.88969        60.89007         0.51704
C         51.24865        42.30825        -0.80060
C         52.47544        44.42983        -0.66235
C         51.25960        43.68699        -0.55790
C         52.49863        45.82806        -0.55676
C         51.25128        46.53427        -0.41387
C         52.51592        48.73727        -0.42405
C         51.25140        47.98814        -0.62162
C         52.52991        50.07570        -0.10810
C         51.31235        50.91618        -0.10245
C         52.57112        52.98323         0.57829
C         51.32160        52.28775         0.43633
C         52.58898        54.36521         0.64279
C         51.35454        55.11759         1.06793
C         52.54596        57.18949         0.10918
C         51.32062        56.55625         0.62449
C         52.52880        58.68063        -0.15740
C         51.36828        59.41365         0.42322
C         52.62999        61.61887         0.01330
C         51.38091        60.95525         0.39265
C         53.71534        46.57580        -0.63116
C         54.99336        48.67681        -0.46669
C         53.76119        47.97325        -0.48773
C         55.06038        50.05057        -0.14944
C         53.80695        50.71359         0.28003
C         55.12498        52.89023         0.46252
C         53.83702        52.19360         0.60691
C         55.17048        54.32387         0.74222
C         53.85743        55.11583         0.72619
C         55.03716        57.22021         0.03583
C         53.86452        56.52801         0.27155
C         55.06977        58.66132        -0.19284
C         53.80548        59.44498        -0.50412
C         55.07673        61.55157        -0.06293
C         53.84489        60.90680        -0.08300
C         56.24690        50.79218        -0.18794
C         57.52745        52.91322        -0.11703
C         56.29344        52.19900         0.07360
C         57.62723        54.30354        -0.00969
C         56.44156        55.06007         0.47050
C         57.51422        57.12448        -0.54684
C         56.35245        56.53262         0.17189
C         57.48087        58.62082        -0.70022
C         56.25989        59.33653        -0.30898
C         57.52154        61.46802        -0.69970
C         56.37862        60.80791         0.01699
C         58.80996        55.01932        -0.32156
C         59.96191        57.16735        -0.83317
C         58.82170        56.42600        -0.51501
C         59.93935        58.59507        -1.02902
C         58.74224        59.33486        -0.86979
C         59.90989        61.42682        -1.37243
C         58.70279        60.76400        -0.98478
C         61.12199        59.31405        -1.34786
C         61.08547        60.70145        -1.53311
O         52.21335        57.76744        -1.24246
O         54.54827        54.78523         1.99097
O         32.93590        54.29461         0.35562
O         37.79114        50.17663         0.45275
O         49.53895        41.55786         0.81878
O         42.56259        58.30397         2.93657
O         47.29751        48.34105         2.07579
O         46.34804        38.33167         0.27813
O         50.38568        48.34479        -1.75326
O         50.57242        50.88183        -1.38091
O         44.82768        49.20540        -0.41060
O         42.80488        44.39020        -0.02238
O         45.46439        52.88564        -0.51015
O         39.74840        48.39148         3.77414
O         51.65239        60.13859         1.63585
O         56.73400        56.06257         1.49936
O         42.64713        52.62790         0.35587
O         36.64498        48.35712         3.32508
O         47.28885        41.25539        -1.96287
O         47.33940        57.95569        -0.50446
O         53.82045        51.17108         1.68008
O         44.82407        54.49755         2.87092
O         40.80292        52.68547         3.34631
O         32.19929        57.79131        -0.12609
O         41.13541        43.58427         3.25482
O         39.64370        45.84504         3.76024
O         34.33318        59.19015         0.62107
O         44.63535        37.24794        -2.92444
O         46.05627        59.31011         2.58113
O         57.19033        57.68446        -1.84147
O         34.44388        52.68648         2.21558
H         33.57468        53.11711         2.05190
O         43.25365        45.39229         3.49320
H         42.48876        44.93692         3.91997
O         38.52617        59.80417         2.25393
H         39.27287        60.30924         2.64096
O         56.76390        60.81130         1.45747
H         56.02146        60.41696         1.96446
O         38.85504        50.82435         3.91177
H         39.58666        51.36319         4.28612
O         53.82329        59.56130        -1.95822
H         53.46295        58.71651        -2.31734
O         41.80034        41.21945         2.71958
H         41.35472        41.71230         3.44900
O         51.46629        55.13735         2.55452
H         52.42142        55.14542         2.78867
O         32.53174        54.06355        -3.21091
H         32.01906        54.56342        -3.87871
O         40.21719        49.98107         0.55660
H         40.37558        50.86660         0.16673
H         30.47336        55.94562        -3.15513
H         29.49321        57.85737        -4.28982
H         31.54738        61.66216        -4.18989
H         29.70746        60.22190        -5.05641
H         33.46770        51.98375        -2.04348
H         30.98516        54.11868        -1.80609
H         33.59071        61.93448        -2.85442
H         34.58034        47.93216         0.78182
H         33.81451        49.93993        -0.56203
H         35.68316        62.19000        -1.62718
H         36.89260        43.77458         1.52905
H         35.74662        45.82914         1.38839
H         37.96167        62.32466        -0.87657
H         39.12273        39.74733         0.24265
H         38.02766        41.76837         1.06471
H         40.32233        62.41510        -0.32107
H         41.37650        35.58829        -1.21156
H         40.25527        37.65973        -0.47996
H         42.69124        62.50111         0.17557
H         44.62749        32.23169        -2.32406
H         42.53060        33.43183        -1.81295
H         45.09237        62.58246         0.28319
H         46.81074        33.38586        -2.43874
H         48.13968        35.50699        -2.40506
H         47.60733        62.62157         0.18843
H         49.49595        37.57407        -1.99930
H         50.84747        39.60786        -1.46413
H         50.03356        62.66132         0.04653
H         52.15921        41.82762        -1.18960
H         53.41526        43.88616        -0.83918
H         52.65275        62.71972         0.00632
H         54.66151        46.02418        -0.73611
H         55.92491        48.12696        -0.66845
H         55.10534        62.63181         0.15174
H         57.17986        50.28721        -0.47960
H         58.41031        52.34063        -0.43752
H         57.48718        62.55582        -0.86246
H         59.73408        54.45275        -0.51143
H         60.93325        56.65405        -0.89599
H         59.90793        62.51815        -1.50239
H         62.06870        58.76941        -1.47217
H         62.01057        61.22932        -1.80509
