         320
 CSIRO Nanostructure Databank - Neutral Graphene Oxide Data Set
C         30.45120        31.67103        -0.70134
C         30.32403        32.80025        -0.21635
C         30.15147        35.84464         0.60817
C         30.06007        36.78515         1.41718
C         30.45944        40.36669         2.28755
C         30.51612        41.45093         1.66653
C         33.07687        29.26957        -1.99287
C         31.96790        29.76400        -1.71577
C         32.87343        31.84620        -0.87225
C         31.56132        31.18984        -1.56991
C         32.68182        32.90429         0.21359
C         31.44573        33.75178        -0.07145
C         32.65183        36.09541         0.47393
C         31.39180        35.20988         0.18571
C         32.51289        37.34796         1.45942
C         30.70230        38.10189         1.36674
C         32.75504        40.19453         0.08310
C         30.49611        38.99322         2.51636
C         32.67224        41.68721         0.41426
C         31.68186        42.34730         1.42508
C         32.65246        44.36818         0.67687
C         31.60941        43.78512         0.99248
C         35.74075        27.56234        -0.76645
C         35.64225        28.96130        -0.39824
C         34.23121        30.23633        -2.18247
C         35.33485        31.89570        -0.57965
C         34.11444        31.33326        -1.11737
C         35.30101        33.19348         0.13223
C         33.95358        33.73699         0.52183
C         35.10414        35.91313         1.36424
C         33.83488        35.20465         0.95546
C         35.07725        37.43623         1.68941
C         33.80817        38.18086         1.20238
C         35.20132        40.11189         0.19046
C         33.90112        39.43731         0.69274
C         35.22695        41.64484         0.15408
C         33.96272        42.42124         0.21160
C         35.10534        44.56993        -0.21323
C         34.08190        43.90750         0.66298
C         35.38627        46.00906        -0.19648
C         37.95857        27.76818        -1.88305
C         36.74069        27.23491        -1.46367
C         37.80276        29.31803        -1.77183
C         36.60747        29.82280        -0.95172
C         37.75657        32.16626        -0.98448
C         36.56454        31.24590        -0.70486
C         37.77364        33.43357        -0.08716
C         36.52774        34.00322         0.29463
C         37.69738        36.05512         1.20081
C         36.47162        35.15786         1.31206
C         37.67773        37.40654         1.31843
C         36.40128        38.17460         1.39183
C         37.73814        40.25855         0.54330
C         36.44170        39.58161         0.86772
C         37.70967        41.65148         0.15651
C         36.44123        42.32306         0.02306
C         37.71607        44.53812        -0.39389
C         36.39824        43.77662        -0.37260
C         37.77362        46.05176        -0.50826
C         36.40077        46.57757        -0.63374
C         40.40090        25.07237        -1.70976
C         39.27942        25.67983        -1.99751
C         40.41515        27.88973        -1.88551
C         39.18013        27.11650        -2.06858
C         40.31154        29.11798        -1.05672
C         39.03620        29.88882        -1.05760
C         40.18209        31.90057        -0.02876
C         39.15141        31.41743        -1.07511
C         40.32205        33.43849        -0.10100
C         38.97483        34.04337         0.29966
C         40.21501        36.12139         0.80511
C         39.00047        35.27062         1.20349
C         40.24564        37.54623         1.30729
C         38.92912        38.26144         1.53743
C         40.18268        40.44721         1.06142
C         38.91404        39.63464         0.89012
C         40.16672        41.75285         0.30733
C         38.96708        42.35344        -0.01172
C         40.25996        44.54844        -0.61514
C         38.91856        43.66823        -0.80046
C         40.18788        45.77710        -1.54493
C         39.02654        46.83003        -0.86564
C         40.13577        48.39184        -2.34906
C         39.07497        47.85358        -1.96035
C         42.66164        24.97763        -1.25051
C         41.45480        24.33085        -1.36918
C         42.84656        27.74193        -1.36449
C         41.67269        27.44111        -2.23336
C         42.77337        28.96462        -0.49950
C         41.58871        29.84738        -0.75828
C         42.67619        31.70187         0.69215
C         41.54146        31.22834        -0.21444
C         42.68358        33.21388         0.81684
C         41.53963        33.93618         0.67661
C         42.73340        36.06548         1.48314
C         41.47238        35.34828         1.14439
C         42.73473        37.58297         1.63733
C         41.42194        38.22827         1.23428
C         42.75346        40.40939         1.03333
C         41.46073        39.63627         0.69831
C         42.75852        41.67164         0.21281
C         41.49323        42.51182         0.28265
C         42.77996        44.32239        -1.15486
C         41.45009        43.56534        -0.85762
C         42.77242        45.77980        -1.55216
C         41.49366        46.54792        -1.68622
C         42.77889        48.27261        -2.60737
C         41.44918        47.79018        -2.30855
C         43.81260        25.50070        -1.16593
C         45.28636        27.59726        -0.78683
C         44.14478        26.94147        -1.53864
C         45.28331        28.85036        -0.21828
C         43.98993        29.51186         0.25110
C         45.23539        31.57678         1.12767
C         44.04569        31.07626         0.25329
C         45.21117        33.09501         1.12594
C         43.93060        33.82803         1.45209
C         45.24667        36.04434         1.55467
C         44.01075        35.34821         1.07303
C         45.29151        37.55294         1.65796
C         44.01969        38.25697         1.18347
C         45.34534        40.37531         0.94066
C         44.03544        39.58012         0.88250
C         45.33350        41.65413         0.13667
C         44.05655        42.46534         0.20387
C         45.40737        44.38663        -0.68459
C         44.08877        43.54228        -0.90390
C         45.37121        45.81665        -1.32556
C         44.10234        46.54085        -1.60184
C         43.88470        47.73904        -2.43767
C         47.78821        27.51728        -0.61899
C         46.64003        27.13372        -0.90825
C         47.88218        29.06655        -0.51543
C         46.58903        29.48171         0.31054
C         47.70683        31.75097         0.50812
C         46.48664        30.98813         0.48681
C         47.74138        33.07836         1.24901
C         46.45605        33.90153         0.95420
C         47.80598        35.98740         1.76845
C         46.45971        35.20902         1.81068
C         47.82359        37.47166         1.59716
C         46.56688        38.06179         0.95989
C         47.76731        40.15019         0.37119
C         46.60779        39.55924         0.75149
C         47.73786        41.30704        -0.61959
C         46.47896        42.15375        -0.50350
C         47.68075        43.75144        -2.06663
C         46.50170        43.41919        -1.12982
C         47.46522        45.19806        -2.41438
C         46.64772        46.01890        -2.00262
C         50.42933        29.54796        -0.67092
C         49.18071        29.51292         0.19942
C         50.18270        31.70803         1.15363
C         49.05750        31.00148         0.53859
C         50.27050        33.10021         1.08497
C         49.00075        33.91013         0.85061
C         50.33811        36.03297         1.08868
C         49.13131        35.21495         1.68018
C         50.41417        37.52889         1.43199
C         49.11829        38.31415         1.60014
C         50.23419        40.45970         0.87552
C         49.10257        39.44214         0.52300
C         50.12060        41.72311         0.04274
C         48.99876        42.16939        -0.57649
C         50.23638        43.43757        -2.21380
C         49.00631        43.51457        -1.33000
C         51.56374        29.96357        -0.87898
C         52.80810        31.94266        -0.39441
C         52.78777        30.71179        -1.01807
C         52.45493        32.95767         0.26738
C         51.54621        33.76469         0.92746
C         52.73095        36.08316         0.68077
C         51.67517        35.21173         1.37277
C         52.63332        37.31694         0.75966
C         51.54106        38.23583         1.01491
C         52.46526        40.31012        -0.05508
C         51.55976        39.64042         0.69426
C         52.74995        41.14059        -1.02297
C         52.07216        42.33846        -1.05944
C         51.42285        43.11019        -2.07566
O         34.70724        32.99149         1.53460
O         32.94631        42.33357        -0.85414
O         37.90727        45.36404         0.78803
O         41.91239        30.99938        -1.61131
O         39.40664        29.12805         0.11514
O         32.16910        39.75167        -0.88192
O         51.24848        42.57807         0.14094
O         48.58638        31.68856        -0.67318
O         42.78431        44.71049        -2.57624
O         34.20110        35.28748         2.34491
O         47.72760        36.88141         2.92942
O         38.75755        43.29141        -2.12050
O         42.72982        37.83463         3.10286
O         31.48396        34.68904        -1.17401
O         44.82846        46.76851        -0.36992
O         35.44851        43.97113        -1.47348
O         36.41068        39.34651         2.30670
O         37.38683        32.50261        -2.30752
O         34.92750        30.28776        -3.15136
O         42.37895        27.67941         0.04714
O         44.03707        43.06300         1.52296
H         44.30715        42.36455         2.17036
O         37.71851        29.84274        -3.09554
H         37.36357        30.77670        -3.03333
O         34.98307        37.48978         3.14833
H         35.56065        36.78707         3.51834
O         34.57569        43.96713         1.99223
H         33.92159        43.51655         2.57907
O         44.00743        35.45177        -0.38555
H         44.90388        35.15648        -0.69852
O         50.17457        36.14490        -0.34533
H         51.05750        36.34542        -0.72849
O         41.19574        42.77957        -2.01696
H         41.03266        43.38408        -2.77518
O         49.21238        44.57393        -0.41717
H         50.06129        44.41277         0.04997
O         50.13552        40.94134         2.21733
H         50.75316        41.69811         2.30570
O         46.57001        37.50798        -0.38489
H         45.80496        37.87133        -0.87982
O         39.67932        31.57376         1.27511
H         40.44490        31.40583         1.87571
O         40.15787        36.38204        -0.62324
H         40.33902        35.54581        -1.13308
O         40.63126        33.88501        -1.45029
H         40.35598        33.17170        -2.09567
O         47.67658        40.63720        -1.90153
H         48.39232        39.95485        -1.90934
O         49.44730        38.87244        -0.76520
H         49.37802        37.88370        -0.72869
O         47.79361        29.60173        -1.80166
H         48.66612        29.54134        -2.24330
O         36.60410        34.53038         2.62404
H         35.84751        33.88883         2.68488
O         47.65069        42.91480        -3.20135
H         46.73152        42.83361        -3.52791
O         32.43468        36.95038         2.78343
H         33.29343        37.13713         3.25020
O         30.38087        38.74478         0.19412
H         30.40520        38.12590        -0.56315
O         53.83717        30.21091        -1.69866
H         53.62564        29.32721        -2.05768
O         34.73194        29.36883         0.50568
H         34.15359        28.62392         0.76231
O         51.14426        30.95073         1.71570
H         51.82014        31.52389         2.13124
O         49.43428        28.72662         1.33809
H         49.00608        27.85040         1.20715
O         45.40402        37.96662         3.06310
H         44.50818        37.81590         3.46491
O         47.82141        32.68151         2.62028
H         47.59493        33.45281         3.19580
O         44.31993        42.77874        -2.11437
H         43.79849        43.19263        -2.84131
O         43.77779        33.68053         2.89729
H         44.64762        33.92495         3.30560
O         40.22913        40.78603         2.48332
H         39.89117        39.99219         2.97980
O         48.89934        34.22954        -0.53332
H         48.96714        33.39098        -1.04611
O         39.24971        34.80138         2.54710
H         38.40674        34.40205         2.87609
O         45.13357        31.11884         2.50478
H         44.34462        30.52785         2.58404
O         43.82664        29.07467         1.62313
H         43.35930        28.20429         1.58997
O         31.37963        31.73066        -2.85224
H         31.96204        31.27323        -3.49270
O         32.33850        32.20942         1.42937
H         33.18186        31.89518         1.83059
O         39.50226        47.45949         0.29227
H         39.16312        46.97679         1.07718
O         45.68505        44.61218         0.70004
H         45.32108        45.49224         0.95135
O         42.35853        31.24845         2.04014
H         42.72122        31.92263         2.66744
O         41.94244        35.46606         2.54047
H         42.15725        37.11671         3.47953
O         49.16196        38.88225         2.91749
H         48.31582        39.33989         3.09926
O         45.43389        40.77638         2.36089
H         45.41922        39.93402         2.88541
O         40.34726        45.10712         0.67691
H         40.50797        44.40992         1.36010
O         46.45839        34.34611        -0.43526
H         46.44761        33.55082        -1.01142
O         39.66316        31.69646        -2.39596
H         38.86099        32.05091        -2.89667
O         32.38405        42.36985         2.68650
H         31.79243        42.77367         3.35682
O         33.05866        36.65796        -0.77852
H         32.69457        36.10011        -1.50642
O         44.39761        31.54488        -1.05486
H         43.61173        31.43532        -1.65056
O         35.32475        39.66061        -1.18217
H         34.59696        40.05465        -1.71100
O         49.44771        34.81791         3.02016
H         49.42115        35.62608         3.57926
O         41.55510        43.10806         1.61543
H         41.57812        42.35444         2.26066
O         44.54699        26.95160        -2.90894
H         43.91285        26.40300        -3.42022
O         46.80457        28.97048         1.65065
H         46.15782        29.41981         2.24747
O         42.74385        40.75280         2.45470
H         42.62102        39.90886         2.95301
O         46.34029        34.75231         3.21239
H         46.51106        35.56014         3.75550
O         41.49655        39.45445        -0.73556
H         40.84916        38.76045        -0.99071
O         38.91275        38.51915         2.99583
H         38.01934        38.90517         3.18544
O         30.45474        38.46121         3.74126
H         30.34334        39.15141         4.42443
O         41.87398        26.58789        -3.27185
H         41.01252        26.36505        -3.68392
O         51.94508        35.24944         2.75950
H         52.77102        34.75699         2.94010
O         39.80580        45.46659        -2.86396
H         39.22691        44.64537        -2.87370
