         275
 CSIRO Nanostructure Databank - Neutral Graphene Oxide Data Set
C         30.38312        31.61194        -0.72156
C         30.49743        32.84336        -0.95627
C         30.51213        36.00416        -0.94715
C         30.50646        37.26956        -0.71664
C         30.47632        40.07608         0.82023
C         30.36744        41.28651         1.17540
C         32.75446        28.81364        -0.62602
C         31.61738        29.33669        -0.44856
C         33.03732        31.50378        -1.42084
C         31.07522        30.45451        -1.12142
C         32.91847        33.00464        -1.40533
C         31.69753        33.74231        -0.78363
C         32.85766        36.03833        -1.33488
C         31.59583        35.19387        -1.19994
C         32.84553        37.58923        -1.04038
C         31.54717        38.12197        -0.38912
C         32.83470        39.96200         0.78639
C         31.55296        39.30433         0.36543
C         32.79756        41.41678         1.33058
C         31.45710        42.17029         1.27172
C         32.75089        44.12511         1.08563
C         31.61185        43.55033         1.19116
C         35.40475        27.37985         0.65691
C         35.31962        28.65817        -0.08553
C         34.12155        29.32666        -0.71298
C         35.23964        31.67072        -0.32398
C         34.11751        30.82586        -0.94436
C         35.48900        33.02984        -1.10044
C         34.19026        33.78796        -1.36889
C         35.41869        36.03456        -0.91862
C         34.17006        35.30251        -1.26382
C         35.35133        37.38898        -0.64560
C         34.04284        37.94091        -0.10174
C         35.33234        40.13805         0.35453
C         34.07638        39.40243         0.24770
C         35.36195        41.54175         0.89194
C         34.12304        42.23723         1.49662
C         35.26851        44.48206         1.00026
C         34.06398        43.72362         1.08528
C         35.38838        45.90380         1.06952
C         37.74067        27.51037         1.55962
C         36.44400        26.89739         1.11874
C         37.77060        28.83110         0.70311
C         36.43348        29.55104         0.54629
C         37.72051        31.71229         0.35413
C         36.57464        30.86355        -0.25504
C         37.82522        33.08305        -0.27417
C         36.53772        33.86972        -0.32462
C         37.84293        35.99917        -0.60048
C         36.66741        35.30992        -0.80939
C         37.91753        37.45258        -0.78175
C         36.56697        38.19805        -0.75650
C         37.83250        40.28925        -0.02208
C         36.51109        39.70717        -0.52208
C         37.84192        41.71254         0.54753
C         36.49228        42.42666         0.33118
C         37.76556        44.60285         0.73895
C         36.53317        43.86132         0.82704
C         37.77018        46.04891         0.84031
C         36.45360        46.55362         1.01282
C         40.17041        24.69393         0.67040
C         39.14920        25.42626         0.79892
C         40.24960        27.13612         1.86816
C         38.97695        26.66495         1.43541
C         40.30142        28.82597         0.13181
C         38.96812        29.51634         0.39945
C         40.29222        31.62560         0.12798
C         38.99591        30.91405         0.23062
C         40.33201        33.12847         0.09054
C         39.02202        33.83836         0.07243
C         40.37690        35.99838        -0.31748
C         39.04609        35.31739        -0.07580
C         40.28090        37.47757        -0.01745
C         39.14202        38.17359        -0.31953
C         40.27645        40.37403         0.16375
C         39.03000        39.62468        -0.07623
C         40.29549        41.73301         0.25522
C         39.02291        42.52551         0.01909
C         40.23318        44.69196         0.58784
C         39.02686        43.95742         0.53716
C         40.21917        46.10989         0.61537
C         38.96557        46.77310         0.69493
C         40.06381        48.90502         0.09651
C         39.12171        48.18341         0.45209
C         42.76535        24.56404         0.96076
C         41.46629        25.15406         0.99116
C         42.74257        27.30091         1.38722
C         41.49975        26.53009         1.45663
C         42.77304        28.71910         1.11107
C         41.47494        29.44076         0.87927
C         42.75255        31.66666         0.91355
C         41.45492        30.93264         0.76607
C         42.76665        33.16427         0.87589
C         41.53142        33.91605         0.50999
C         42.77690        36.05405         0.46922
C         41.54124        35.28269         0.36050
C         42.79164        37.42394         0.41874
C         41.47068        38.17578         0.61965
C         42.79903        40.31344         0.55268
C         41.56067        39.59289         0.01487
C         42.83076        41.78268         0.19883
C         41.55508        42.47036         0.53980
C         42.83594        44.69772         0.62257
C         41.52878        43.94990         0.72127
C         42.80475        46.18970         0.48327
C         41.48164        46.98816         0.62661
C         42.68611        48.93653        -0.24909
C         41.34690        48.24756        -0.37603
C         43.81402        25.21447         1.17090
C         45.21883        27.32062         1.14986
C         43.99961        26.61710         1.30484
C         45.24597        28.74432         0.92642
C         43.97612        29.41834         0.92091
C         45.28911        31.62000         0.69360
C         43.95038        30.86878         0.41420
C         45.25185        33.08127         0.13867
C         44.11050        33.89768         0.80149
C         45.32520        36.07828         0.50973
C         44.04248        35.29766         0.14303
C         45.35599        37.43654        -0.18921
C         44.03814        38.16313         0.18164
C         45.23806        40.23562        -0.26562
C         44.01658        39.52407         0.15514
C         45.20980        41.72120        -0.47681
C         43.96558        42.46259        -0.09248
C         45.07967        44.63973        -0.67487
C         44.14285        43.92049         0.33073
C         45.12580        46.17349        -0.49025
C         44.03653        46.87789        -0.07081
C         43.73055        48.26689        -0.21961
C         47.61360        27.34682         0.79498
C         46.51922        26.78641         1.04419
C         47.69933        28.72901         0.44850
C         46.48450        29.40805         0.58509
C         47.77266        31.59568         0.21456
C         46.45943        30.83878         0.07869
C         47.81598        33.07597         0.57006
C         46.55242        33.86916         0.30659
C         47.84730        35.99257         0.35685
C         46.58326        35.24191         0.32560
C         47.86113        37.42718         0.47910
C         46.62471        38.19545         0.25986
C         47.48085        40.53844         0.60988
C         46.50822        39.58051         0.15526
C         47.67855        41.80819         0.13995
C         46.51803        42.47968        -0.50289
C         47.68818        44.73438         0.05174
C         46.47764        43.97467        -0.55649
C         47.61494        46.11252        -0.68403
C         46.46292        46.59655        -0.71572
C         49.74139        28.94653        -1.13824
C         49.00523        29.39077         0.13243
C         50.10377        31.64751        -0.51211
C         48.92889        30.91764        -0.03107
C         50.17749        33.07631        -0.29208
C         49.05665        33.80565         0.09558
C         50.29831        35.95069        -0.03390
C         49.05313        35.24689         0.16749
C         50.36447        37.33628         0.33858
C         49.18508        38.04629         0.65650
C         50.43658        40.25288         0.63997
C         49.36400        39.43754         0.99242
C         50.29281        41.71648         0.28047
C         48.96152        42.54797         0.54139
C         50.27859        44.57769         0.34804
C         48.98570        43.95426        -0.19154
C         50.70635        29.60913        -1.57051
C         52.03327        31.86734        -1.87203
C         51.00293        30.99494        -1.40416
C         52.13207        33.10481        -1.71860
C         51.54232        33.75613        -0.46217
C         52.55758        36.11182        -0.49321
C         51.45892        35.23833        -0.43955
C         52.80587        37.26081        -0.06319
C         51.68793        38.01918         0.50950
C         52.83640        40.47375         0.33044
C         51.74065        39.55851         0.65308
C         52.78356        41.71232         0.38995
C         51.61445        42.54244         0.11912
C         51.35053        43.96298         0.34153
O         43.06970        45.55795         1.79109
O         33.52698        33.45135        -2.64616
O         46.77958        43.21583        -1.75419
O         33.62768        35.84215        -2.54728
O         35.79496        40.45506         1.77416
O         41.53678        43.05761         1.90591
O         38.86678        34.77874         1.27910
O         40.44378        28.05449        -0.79749
O         45.10778        40.79967        -1.62419
O         32.00943        30.84277        -2.15201
O         35.13080        28.59334        -1.48206
O         32.80640        40.30823         2.25000
O         48.31264        40.09212         1.63441
O         40.57817        32.33372        -1.12625
O         41.03918        30.28244         1.99857
O         50.89619        42.02857        -1.01578
O         51.89877        38.67023         1.77462
O         42.76906        32.40301         2.15970
O         37.30713        37.93592        -2.00962
O         49.88744        29.14361         1.21971
H         49.76789        28.21263         1.50720
O         41.53371        47.60372         1.92046
H         41.88605        46.94134         2.55587
O         40.63955        35.87879        -1.74855
H         41.40371        36.45239        -1.97138
O         42.77148        40.32850         2.01372
H         42.35402        41.16549         2.32206
O         44.53250        34.07746         2.17876
H         43.73744        34.25852         2.72513
O         36.06975        32.76894        -2.38987
H         35.33555        32.74366        -3.04850
O         45.42520        37.29113        -1.61503
H         45.36704        38.18274        -2.01973
O         36.97287        30.45460        -1.56295
H         36.96758        31.24730        -2.15446
O         35.93292        29.82363         1.89077
H         36.53195        30.54517         2.24555
O         45.51880        31.62092         2.11090
H         44.75048        32.06880         2.54415
O         44.55311        44.40702        -1.98402
H         45.23660        43.89532        -2.48682
O         43.97635        35.19027        -1.30383
H         43.08525        34.85787        -1.54937
O         38.10193        41.62981         1.96079
H         37.39085        41.08019         2.36945
O         52.37355        33.37603         0.62942
H         52.41709        32.39739         0.67140
O         34.77749        32.02029         0.98773
H         34.71564        31.19270         1.52307
O         41.18131        38.23049         2.02815
H         41.83131        38.85414         2.43872
O         48.91782        42.80887         1.95179
H         48.74377        41.95507         2.40986
O         36.10122        34.08890         1.06526
H         36.83944        34.59571         1.48677
O         43.68311        30.76986        -0.99820
H         44.49111        30.39735        -1.43385
O         33.74407        37.19843         1.12424
H         34.20783        37.63118         1.87253
O         45.05105        32.93488        -1.28019
H         44.97744        33.84011        -1.67929
O         37.46955        31.90523         1.79747
H         36.79553        32.63786         1.84859
O         45.29815        36.47302         1.89934
H         45.44148        35.66880         2.44999
O         31.99752        33.75566         0.62679
H         31.28528        34.23835         1.09737
O         37.62200        27.95256         2.92045
H         36.80992        28.51680         2.96708
O         49.17521        43.77709        -1.56393
H         48.96631        44.61829        -2.02378
O         41.77877        39.45019        -1.41298
H         40.93319        39.18093        -1.83106
O         38.88332        42.64330        -1.43216
H         39.59127        43.22839        -1.77516
O         36.18488        42.59930        -1.06834
H         37.03000        42.70816        -1.56624
O         46.28908        30.68026        -1.36038
H         46.11826        31.57854        -1.74215
O         32.99140        38.27581        -2.27379
H         33.40073        37.64860        -2.91788
O         47.91796        33.06291         2.03932
H         47.12434        32.56789         2.37044
O         47.46649        44.94825         1.41333
H         48.32877        45.07126         1.86552
O         40.30216        28.10684         2.80423
H         39.38512        28.35223         3.08271
O         34.34456        42.30303         2.91553
H         34.20348        41.39134         3.26327
O         36.27124        40.27124        -1.83172
H         36.76127        39.71515        -2.48020
O         41.18126        47.79508        -1.68614
H         41.11345        48.55899        -2.29504
O         44.86382        43.78670         1.57052
H         44.55175        44.49994         2.17790
