         429
 CSIRO Nanostructure Databank - Neutral Graphene Oxide Data Set
C          1.26863         2.02880         0.32253
C          1.19705         3.38047         0.11753
C          2.48242         1.32003         0.15704
C          2.36133         4.14422        -0.45534
C          1.21610         6.35077        -0.03529
C          1.21111         7.78010         0.01136
C          2.36940         5.61289        -0.07603
C          2.36727         8.52829        -0.03532
C          1.18456        10.71870        -0.18224
C          1.18323        12.11000        -0.33981
C          2.37528         9.98123        -0.19578
C          2.37369        12.82108        -0.46551
C          1.14269        15.07475        -0.44596
C          1.17054        16.41568        -0.25335
C          2.38581        14.30182        -0.80998
C          2.41843        17.14387        -0.18828
C          2.46231        18.55608        -0.11541
C          3.69498         2.00989        -0.08111
C          3.68602         3.44869        -0.21898
C          4.91824         1.31176        -0.10533
C          4.89081         4.14783        -0.28635
C          3.65886         6.28897         0.10305
C          3.65906         7.83633         0.10578
C          4.91379         5.59302        -0.23522
C          4.89660         8.51321        -0.31797
C          3.61419        10.67977        -0.34176
C          3.60618        12.10601        -0.44290
C          4.86147         9.95891        -0.45110
C          4.85099        12.82611        -0.50271
C          3.64907        15.00536        -0.35876
C          3.62998        16.39031        -0.15011
C          4.87608        14.26268        -0.39859
C          4.87534        17.12865         0.12453
C          3.65899        19.26772        -0.07103
C          4.91350        18.60502        -0.00714
C          6.15703         1.97959        -0.28238
C          6.15125         3.43679        -0.36364
C          7.35321         1.25543        -0.27038
C          7.34286         4.14608        -0.43450
C          6.09773         6.31891        -0.36702
C          6.06298         7.76743        -0.48623
C          7.36927         5.59871        -0.46267
C          7.28912         8.45809        -0.93625
C          6.05634        10.68167        -0.59061
C          6.06668        12.10818        -0.55696
C          7.31959         9.97696        -0.88126
C          7.32743        12.80078        -0.52115
C          6.12316        14.93078        -0.35682
C          6.16340        16.36769        -0.03992
C          7.35168        14.22671        -0.44698
C          7.36127        17.15394        -0.42911
C          6.14091        19.27818         0.00027
C          7.39819        18.60627        -0.13276
C          8.62974         1.89719        -0.52415
C          8.61391         3.41305        -0.62312
C          9.92432         1.21933        -0.32858
C          9.85333         4.12202        -0.17135
C          8.57210         6.27037        -0.60606
C          8.59183         7.71670        -0.90210
C          9.92438         5.57180        -0.65100
C          9.86636         8.51925        -0.71133
C          8.59513        10.67877        -0.59405
C          8.53800        12.07471        -0.39712
C          9.82553         9.98273        -0.50332
C          9.72954        12.79899         0.07483
C          8.60856        14.92490        -0.38245
C          8.64860        16.38164        -0.57033
C          9.79845        14.25363        -0.10771
C          9.90923        17.09342        -0.36023
C          8.62872        19.24775        -0.14941
C          9.88731        18.54988        -0.31742
C         11.13797         1.86919        -0.14276
C         11.09794         3.34969         0.19655
C         12.32716         1.11434        -0.45464
C         12.33529         4.18100         0.18497
C         10.95157         6.38494         0.16212
C         11.08397         7.81484        -0.30638
C         12.28388         5.66488         0.25007
C         12.29317         8.52220        -0.25872
C         11.04794        10.64369        -0.21183
C         11.04403        12.05242         0.18693
C         12.29854         9.98410        -0.21079
C         12.30751        12.81165         0.25462
C         11.05179        14.93111         0.05102
C         11.07849        16.37498        -0.11034
C         12.25329        14.22459         0.31018
C         12.34412        17.06643        -0.10937
C         11.08910        19.22439        -0.37375
C         12.36004        18.47392        -0.66031
C         13.65175         1.48253        -0.12045
C         13.57766         3.64811         0.32969
C         14.90202         1.17414        -0.64303
C         14.76331         4.20332        -0.42125
C         13.57847         6.41530         0.06895
C         13.52079         7.83565        -0.24576
C         14.83992         5.69928        -0.23968
C         14.74376         8.62378        -0.54980
C         13.49291        10.67842         0.13808
C         13.51570        12.06911         0.35679
C         14.76266         9.87075         0.36847
C         14.72207        12.76118         1.00176
C         13.47597        15.00447         0.76495
C         13.52061        16.40475         0.19188
C         14.77954        14.23932         0.61416
C         14.77809        17.09369         0.16199
C         13.60546        19.21711        -0.30035
C         14.78943        18.53598        -0.02731
C         16.08417         1.99148        -0.34538
C         16.05353         3.43236        -0.24957
C         17.33894         1.36793        -0.30878
C         17.25131         4.16314        -0.28662
C         15.99002         6.39143        -0.49418
C         16.03255         7.84384        -0.49960
C         17.23972         5.60631        -0.64453
C         17.20476         8.56817        -0.53368
C         16.03478        10.64914         0.13314
C         16.09766        11.96951         0.89857
C         17.19252         9.99774        -0.21507
C         17.27714        12.81166         0.44960
C         15.96333        14.93111         0.50413
C         15.98341        16.38929         0.35222
C         17.24090        14.22524         0.47648
C         17.22002        17.10028         0.38433
C         16.02386        19.23155         0.07591
C         17.23548        18.54086         0.26606
C         18.54751         2.09682        -0.14729
C         18.51780         3.52612        -0.19592
C         19.78930         1.43327         0.00241
C         19.75054         4.27974        -0.09838
C         18.53613         6.36300        -0.68710
C         18.49351         7.86183        -0.78424
C         19.77780         5.69925        -0.26734
C         19.78024         8.62043        -0.80161
C         18.52191        10.62701         0.18245
C         18.48153        12.14150         0.19244
C         19.67402        10.15338        -0.71355
C         19.69757        12.85852         0.11010
C         18.45958        14.95131         0.48614
C         18.45641        16.40812         0.54419
C         19.67894        14.24380         0.37477
C         19.65532        17.14187         0.64668
C         18.46553        19.24506         0.30143
C         19.68780        18.57175         0.49050
C         20.97942         2.15807         0.20236
C         20.94965         3.58259         0.18406
C         22.22941         1.45950         0.33102
C         22.14012         4.36345         0.67846
C         21.00672         6.45113        -0.17261
C         21.03973         7.89832        -0.45067
C         22.17927         5.79162         0.18330
C         22.22984         8.60575        -0.40940
C         20.98072        10.82616        -0.34776
C         20.97198        12.16823        -0.10591
C         22.23167        10.08270        -0.63479
C         22.22754        13.00066        -0.33678
C         20.94289        14.90709         0.71976
C         20.91642        16.46731         0.93854
C         22.21219        14.31622         0.38680
C         22.18249        17.17065         0.80940
C         20.92928        19.26972         0.55132
C         22.17057        18.60410         0.68408
C         23.44697         2.12743         0.38698
C         23.46891         3.60396         0.53518
C         24.68402         1.44067         0.33846
C         24.74455         4.30255         0.18066
C         23.48362         6.51728         0.37412
C         23.47937         7.94904        -0.11351
C         24.65789         5.75245        -0.30584
C         24.69493         8.60754        -0.11328
C         23.53250        10.83634        -0.52893
C         23.51085        12.24450        -0.10438
C         24.79804        10.05603        -0.36290
C         24.66504        12.89563         0.33987
C         23.39751        15.01137         0.65454
C         23.38765        16.44805         0.85295
C         24.64754        14.31394         0.62714
C         24.63085        17.15261         0.90152
C         23.40981        19.29183         0.73334
C         24.63190        18.59771         0.87773
C         25.94594         2.04035         0.10858
C         25.95004         3.49957        -0.25471
C         27.08337         1.24199         0.34509
C         27.22158         4.36398        -0.35376
C         25.95771         6.48437        -0.02998
C         25.93237         7.89531         0.15058
C         27.15835         5.78723         0.04285
C         27.11347         8.56971         0.52780
C         26.02220        10.77547         0.14209
C         25.91119        12.19881         0.49508
C         27.15479        10.00179         0.69284
C         27.06671        12.85913         0.92476
C         25.85052        15.00377         0.89888
C         25.84789        16.43828         0.97636
C         27.07881        14.28979         1.04815
C         27.09139        17.13043         1.12026
C         25.87301        19.27752         0.94602
C         27.09711        18.58529         1.07932
C         28.43861         1.61003         0.10519
C         28.53543         3.73304        -0.28487
C         29.58382         1.25694         0.78723
C         29.61725         4.25596         0.40990
C         28.34765         6.42069         0.53336
C         28.30094         7.82246         0.80558
C         29.54691         5.66546         0.76842
C         29.41911         8.46348         1.40736
C         28.26574        10.67680         1.17409
C         28.28055        12.11707         1.15107
C         29.47107         9.95477         1.75218
C         29.49877        12.81281         1.23399
C         28.30072        14.98192         1.26316
C         28.28503        16.41301         1.29217
C         29.53687        14.24134         1.27426
C         29.53429        17.14805         1.57765
C         28.32712        19.27185         1.08960
C         29.57239        18.60111         1.25886
C         30.80867         2.04233         0.73202
C         30.80850         3.48799         0.69941
C         32.02014         1.37428         0.95445
C         32.00525         4.18453         1.07678
C         30.65093         6.29685         1.35288
C         30.45413         7.62058         1.79318
C         31.99630         5.61972         1.59501
C         32.29183         8.69327         1.51068
C         30.77415        10.68782         1.31947
C         30.73369        12.05106         1.12548
C         32.03543         9.98996         1.07520
C         31.87248        12.81401         0.48578
C         30.79951        14.92063         1.27732
C         30.83708        16.35898         1.61784
C         31.98521        14.24803         0.94706
C         32.12695        17.09178         1.43212
C         30.76957        19.26686         1.05918
C         32.08531        18.62548         1.17200
C         33.24812         2.07285         1.01655
C         33.21746         3.50472         1.09828
C         34.48357         1.39001         1.05083
C         34.50805         4.25655         1.33474
C         33.24310         6.40423         1.10269
C         33.28107         7.83082         0.95739
C         34.42473         5.69412         0.85780
C         34.36500         8.46980         0.28116
C         33.15919        10.66118         0.47664
C         33.17276        12.06790         0.44354
C         34.34025         9.91337         0.14288
C         34.38788        12.76926         0.28874
C         33.24603        14.91168         0.83491
C         33.30822        16.36096         0.96061
C         34.41977        14.17741         0.52281
C         34.44554        17.07789         0.59480
C         33.23069        19.19409         0.46018
C         34.39540        18.48890         0.28963
C         35.71103         2.08700         0.87517
C         35.70974         3.51304         0.81278
C         36.91335         1.37452         0.66110
C         36.85430         4.20136         0.36357
C         35.59076         6.34426         0.33726
C         35.50984         7.71194        -0.04348
C         36.81837         5.62009         0.11878
C         36.64136         8.35874        -0.72481
C         35.48229        10.61783        -0.27266
C         35.56579        12.03377        -0.11810
C         36.62965         9.89360        -0.83169
C         36.76170        12.70163        -0.45864
C         35.72317        14.86171         0.48158
C         35.73990        16.36436         0.51264
C         36.89792        14.12921        -0.12104
C         36.96865        17.08436         0.08129
C         35.52921        19.15898        -0.48310
C         36.89325        18.51648        -0.32108
C         38.09593         2.05150         0.31127
C         38.05657         3.46832         0.10525
C         39.32407         1.35087         0.11267
C         39.22209         4.14583        -0.35116
C         37.98407         6.26935        -0.39648
C         37.95548         7.69188        -0.72934
C         39.16633         5.54236        -0.62760
C         39.10441         8.39973        -1.02888
C         37.91236        10.59101        -0.97891
C         37.93462        12.00153        -0.88362
C         39.10274         9.84426        -1.19356
C         39.16576        12.71401        -1.13346
C         37.92736        14.90549        -0.91661
C         38.13605        16.32184        -0.43891
C         39.21373        14.13513        -1.09116
C         39.29451        16.98859        -0.68882
C         38.05194        19.16090        -0.55403
C         39.38298        18.45979        -0.30517
C         40.46914         2.02750        -0.26439
C         40.44241         3.41961        -0.50723
C         41.64723         4.13968        -0.85166
C         40.32982         6.21447        -1.33155
C         40.44821         7.69256        -0.93213
C         41.62296         5.45510        -1.16305
C         41.51806         8.42172        -1.70523
C         40.30842        10.53859        -1.48184
C         40.34477        11.97152        -1.45459
C         41.47062         9.75994        -1.87084
C         41.54519        12.70060        -1.69595
C         40.40713        14.83097        -1.34380
C         40.44244        16.29770        -1.27291
C         41.57761        14.07676        -1.63503
C         41.49548        17.04714        -1.73903
C         40.52410        19.16288        -0.98776
C         41.49495        18.48691        -1.64119
O          7.18551         9.24811        -2.15839
O         20.88441        15.52259         2.04394
O         17.93347         5.79220        -1.92591
O          8.68006         2.64926        -1.84285
O         13.02742         6.12133         1.44344
O         19.16664         8.19391        -2.06816
O         13.70921         2.41489         0.93581
O         30.14272        16.72852         2.84602
O         26.44425         3.94378        -1.54377
O         36.28511         9.02870        -1.97361
O         36.80064        14.31600         1.32138
O         32.40886        18.05134         2.48041
O         10.20099        12.31397         1.37495
O          3.78042         7.06542         1.34252
O         31.49626         8.18162         2.55615
O         28.64270         2.53545        -0.96245
O         36.69797        16.89408         1.51979
O         16.44325        11.48140         2.20285
O         10.13450         3.80198         1.21840
O         24.42519         4.04871         1.57519
O          7.86343        16.82678        -1.75548
O         22.90481        10.56696        -1.85406
O         25.83241        10.47715        -1.30549
O          9.43181         8.04720        -2.07258
O          5.64627        16.66297         1.29663
O         32.15903         5.49803         3.04822
H         32.07918         6.41107         3.41130
O          2.16830         4.12736        -1.92175
H          2.17377         3.18752        -2.20320
O         14.37366         4.01604        -1.83652
H         15.15778         4.22661        -2.38886
O         31.46499        12.92834        -0.93873
H         31.40420        12.01824        -1.30081
O         37.31515        15.02048        -2.25009
H         37.99928        15.36005        -2.86545
O         23.74119         6.60907         1.79839
H         23.37162         5.79932         2.23033
O         19.37715        10.67127        -2.03330
H         19.19160         9.89560        -2.61723
O         21.92642         4.48158         2.14183
H         22.05981         3.59024         2.53034
O         14.80914         9.46717         1.74167
H         15.38650        10.14015         2.21990
O         39.62977        18.53648         1.12916
H         38.89918        18.05832         1.57924
O         24.37792         5.72538        -1.71669
H         25.11835         5.24342        -2.15642
O         35.58900        20.55171        -0.17870
H         35.81685        20.64690         0.76886
O         10.37825         5.51438        -2.01860
H         10.14213         6.37861        -2.44293
O         13.29120        15.20216         2.20420
H         13.53251        14.33699         2.63034
O         14.36920        12.77138         2.41355
H         15.13908        12.30138         2.86021
O         40.84841         7.70985         0.46882
H         40.96212         8.64533         0.73806
O         34.68444         4.33220         2.79072
H         33.83870         4.70149         3.15556
O         12.42358        18.33475        -2.14581
H         13.22365        17.80469        -2.35125
O         18.75134        10.19570         1.54240
H         17.99093        10.59984         2.06222
O         22.19792        13.29961        -1.77842
H         22.30308        12.43055        -2.23922
O         10.41988         6.53057         1.50222
H         11.19463         6.59123         2.10914
O         14.62275         9.17877        -1.89423
H         14.75091         8.45231        -2.53966
O          2.43284        14.32383        -2.28771
H          2.45361        15.26416        -2.56607
O         29.38920        10.07438         3.19793
H         30.16946         9.60515         3.56734
O         40.02525         6.20756        -2.75993
H         39.91257         5.27489        -3.03907
H          0.37170         1.47677         0.63980
H          0.23562         3.89615         0.24884
H          2.50321         0.23053         0.29864
H          0.24287         5.85459        -0.15663
H          0.23138         8.27399        -0.04488
H          0.21955        10.20816        -0.06461
H          0.21522        12.62791        -0.36607
H          0.16937        14.56623        -0.49507
H          0.23377        16.97482        -0.10755
H          1.51247        19.11004        -0.14279
H          4.91265         0.21718         0.00539
H          3.63681        20.36699        -0.09364
H          7.33319         0.18502        -0.01632
H          6.14098        20.37853         0.04131
H          9.93630         0.13074        -0.49855
H          8.66653        20.33976        -0.01487
H         12.17654         0.20179        -1.05266
H         11.11651        20.32317        -0.32237
H         15.03086         0.32220        -1.32730
H         13.63058        20.30794        -0.44724
H         17.39450         0.27153        -0.37823
H         16.03443        20.32562        -0.03734
H         19.82027         0.33393        -0.00300
H         18.45937        20.33811         0.17885
H         22.22268         0.36204         0.25848
H         20.91822        20.36727         0.47617
H         24.65703         0.34464         0.43694
H         23.41918        20.39029         0.66899
H         26.90706         0.27791         0.84710
H         25.88489        20.37689         0.89786
H         29.56753         0.39610         1.47167
H         28.33249        20.36307         0.94761
H         32.02678         0.27664         1.01409
H         30.74114        20.31706         0.72933
H         34.49010         0.29010         1.07023
H         33.14784        20.21027         0.04574
H         36.91645         0.27814         0.74875
H         35.25890        19.08840        -1.57721
H         39.35061         0.26466         0.27981
H         38.04975        20.22834        -0.82413
H         41.41627         1.48258        -0.38812
H         42.60241         3.59336        -0.82276
H         42.56451         5.96693        -1.40925
H         42.40363         7.86634        -2.04560
H         42.31166        10.27012        -2.36175
H         42.47539        12.16269        -1.92230
H         42.53003        14.59586        -1.80919
H         42.35871        16.56514        -2.21846
H         40.57477        20.25802        -0.89599
H         42.33158        19.03266        -2.10153
