         762
 CSIRO Nanostructure Databank - Neutral Graphene Oxide Data Set
C         23.19844        24.72181        -1.04538
C         22.09038        25.44351        -1.32246
C         23.01453        27.50064        -0.35649
C         21.95214        26.81504        -0.88353
C         22.93524        28.95859         0.06994
C         21.83361        29.76137        -0.57809
C         22.96052        31.85249         0.00002
C         21.82384        31.10924        -0.52507
C         22.87685        33.13142         0.49740
C         21.63301        33.87858         0.54085
C         22.74013        36.01725         1.23437
C         21.57325        35.19778         0.83799
C         22.72075        37.53450         1.02141
C         21.57996        38.19434         0.36867
C         22.87258        40.23271        -0.12165
C         21.67277        39.46798        -0.13228
C         22.76910        41.63609        -0.73255
C         21.83979        42.51034         0.07741
C         22.86120        44.64686        -0.74135
C         21.87181        43.85163         0.03009
C         22.91064        46.12653        -0.48609
C         22.18372        46.75828         0.54361
C         23.22494        48.91355         0.06579
C         22.29742        48.13589         0.76300
C         25.66611        23.19080        -0.32002
C         25.59763        24.59942        -0.22953
C         24.24662        25.28247        -0.11339
C         25.44876        27.50745        -0.02324
C         24.28010        26.80162        -0.17933
C         25.45564        28.97167         0.04999
C         24.27381        29.67040        -0.01564
C         25.46197        31.85157         0.42676
C         24.28937        31.17210        -0.23181
C         25.39143        33.14270         0.86925
C         24.08260        33.80568         1.04669
C         25.34543        36.02690         1.32741
C         24.05394        35.27983         1.39244
C         25.30261        37.51525         1.23784
C         24.02922        38.29650         1.02484
C         25.29626        40.32131         0.22697
C         24.07790        39.65057         0.35764
C         25.37336        41.59501        -0.54398
C         24.12241        42.32602        -0.95741
C         25.43320        44.53464        -1.26597
C         24.12865        43.83577        -1.21618
C         25.54884        45.90116        -1.61522
C         23.73727        46.97424        -1.25363
C         25.26659        48.96710        -1.39345
C         24.02235        48.31582        -0.92975
C         25.29628        50.36519        -1.59672
C         28.11086        23.24137        -0.27399
C         26.88307        22.53440        -0.37893
C         28.05743        24.66228        -0.13068
C         26.79141        25.32435        -0.15211
C         28.01681        27.56287         0.07120
C         26.74100        26.80156        -0.17988
C         27.94414        28.98847         0.44171
C         26.72124        29.68291         0.28974
C         27.88720        31.75885         0.85610
C         26.70109        31.08607         0.49714
C         27.85929        33.26349         0.79948
C         26.60577        33.85060         1.45633
C         27.83031        36.11021         1.30325
C         26.55768        35.37237         1.28553
C         27.84075        37.47991         1.25332
C         26.58725        38.16441         0.84263
C         27.85531        40.39797         0.62824
C         26.58211        39.60188         0.45783
C         27.63940        41.87585         0.58109
C         26.65537        42.37208        -0.42535
C         27.68818        44.71744        -0.17175
C         26.64118        43.83758        -0.78371
C         27.67449        46.18779        -0.44592
C         26.57893        46.79911        -1.22650
C         27.69370        49.06665        -1.11965
C         26.51600        48.25757        -1.30200
C         27.73352        50.46305        -1.43687
C         26.48109        51.07864        -1.72376
C         30.63443        20.46442        -0.49837
C         29.48500        21.16207        -0.62847
C         30.55309        23.25210         0.12288
C         29.37652        22.55427        -0.24730
C         30.48194        24.65440         0.31264
C         29.27556        25.38773         0.13076
C         30.38222        27.53380         0.74613
C         29.23876        26.80291         0.36599
C         30.37788        28.92733         0.98454
C         29.12543        29.65178         0.86706
C         30.24442        31.76425         1.62065
C         29.07015        31.05408         1.07755
C         30.27189        33.24203         1.51571
C         29.13780        33.92814         1.23980
C         30.40236        36.07003         1.60251
C         29.16317        35.41641         1.03191
C         30.38138        37.53800         1.78167
C         29.08256        38.26605         1.50929
C         30.43342        40.41964         1.35298
C         29.13466        39.71431         1.09310
C         30.56839        41.76870         1.45779
C         28.57960        42.76315         1.03766
C         30.17335        44.24965        -0.04815
C         28.86925        43.98919         0.36382
C         30.21615        46.37578        -0.50888
C         28.91880        46.99466        -0.24944
C         30.22161        49.16695        -0.56314
C         28.89122        48.48029        -0.48721
C         30.26324        50.46774        -1.28743
C         28.98633        51.19430        -1.48452
C         30.31850        53.24376        -1.91595
C         29.12337        52.55035        -1.90770
C         33.31229        19.39982        -1.12386
C         33.16712        20.47464        -0.27489
C         31.83077        21.02038         0.22365
C         32.99661        23.21869         0.56154
C         31.82942        22.54867         0.27312
C         33.01620        24.67063         0.83741
C         31.68910        25.37493         0.74294
C         32.94637        27.59494         0.89820
C         31.67770        26.85374         0.61338
C         32.82423        28.92621         1.49131
C         31.59933        29.58457         1.40027
C         32.79205        31.72931         2.03151
C         31.51489        31.00852         1.80141
C         32.89195        33.18808         1.74481
C         31.60088        33.92191         1.46148
C         32.88621        36.07713         1.46093
C         31.59427        35.40070         1.56022
C         32.94067        37.45212         1.38792
C         31.71750        38.23458         1.67717
C         32.87783        40.31976         0.63088
C         31.72352        39.68795         1.37615
C         32.90387        41.83001         0.68028
C         31.70662        42.52603         0.93540
C         32.65660        44.52411        -0.23753
C         31.48139        43.80552         0.32275
C         32.65077        46.06228        -0.52523
C         31.44968        46.92366        -0.31499
C         32.77626        49.02362        -0.80092
C         31.50508        48.40892        -0.31616
C         32.83090        50.50438        -0.83064
C         31.59312        51.18854        -1.28949
C         32.89906        53.39292        -1.19969
C         31.56436        52.67989        -1.35008
C         33.19091        54.69611        -1.86443
C         35.76147        19.28404        -0.79898
C         34.57380        18.78031        -1.33186
C         35.71342        20.54817        -0.06849
C         34.37521        21.06019         0.30920
C         35.52581        23.29999         0.87433
C         34.29114        22.52755         0.75057
C         35.50452        24.70152         0.96515
C         34.29701        25.41421         0.83379
C         35.51369        27.68041         1.18005
C         34.27101        26.89315         0.89554
C         35.45295        29.00990         1.92086
C         34.01168        29.53937         2.16269
C         35.70059        32.05907         2.26253
C         33.80385        30.95879         2.50365
C         35.48956        33.31378         1.72529
C         34.18483        33.97706         1.74752
C         35.19973        35.93847         0.51968
C         34.11058        35.30303         1.35716
C         35.37796        37.43819         0.68323
C         34.22584        38.18449         1.19988
C         35.36618        40.30856         0.22820
C         34.22419        39.69271         0.93676
C         35.29094        41.72471        -0.13879
C         34.05912        42.48585         0.13151
C         35.13547        44.55994        -0.71126
C         33.97462        43.85396        -0.12541
C         35.25664        46.03012        -0.45993
C         33.96630        46.77132        -0.34828
C         35.31224        48.90771        -0.43660
C         34.01922        48.21694        -0.71632
C         35.29883        50.40209        -0.47030
C         34.04202        51.14465        -0.78136
C         35.33137        53.22217        -0.68925
C         34.13323        52.57814        -0.92076
C         35.20861        54.73102        -0.49894
C         34.36464        55.30107        -1.61931
C         38.37881        16.61587        -1.45087
C         37.11992        17.22937        -1.30510
C         38.26162        19.27421        -0.60575
C         37.00863        18.55761        -0.89258
C         38.16456        20.70506        -0.06625
C         36.84280        21.23932         0.30777
C         38.04777        23.34739         1.06958
C         36.78477        22.50865         1.16107
C         38.03646        24.70728         1.30389
C         36.72207        25.40859         1.56119
C         38.06493        27.63172         1.50706
C         36.80019        26.89395         1.23724
C         38.04497        29.10893         1.74141
C         36.76394        29.81146         1.91975
C         38.06696        31.98654         1.82333
C         36.81587        31.20129         1.95618
C         37.96238        33.32298         1.18925
C         36.64954        33.96792         1.12673
C         37.64922        35.86431        -0.07066
C         36.51907        35.23008         0.60683
C         37.58917        37.31306        -0.45499
C         36.44809        38.09772         0.10258
C         37.52470        40.09967        -1.00932
C         36.46534        39.53021        -0.08917
C         37.65433        41.60926        -0.88366
C         36.41452        42.34747        -0.67603
C         37.65010        44.55338        -1.22972
C         36.37186        43.78912        -1.02303
C         37.72343        46.03228        -0.98880
C         36.52803        46.75723        -0.76411
C         37.78802        48.88062        -0.81720
C         36.57001        48.16157        -0.67721
C         37.80422        50.33031        -0.72511
C         36.59652        51.08019        -0.64620
C         37.83785        53.15271        -0.43948
C         36.58959        52.48959        -0.58868
C         37.81143        54.58201        -0.04455
C         36.54369        55.39767        -0.18213
C         37.87492        57.50108        -0.26560
C         36.69688        56.85358        -0.38579
C         41.12785        15.96870        -2.58154
C         40.86442        16.54295        -1.32211
C         39.57147        17.19540        -0.98651
C         40.58130        19.16039         0.27431
C         39.50786        18.50083        -0.38714
C         40.56369        20.56467         0.59395
C         39.35845        21.30135         0.55131
C         40.50804        23.32627         1.29365
C         39.30177        22.64745         0.97320
C         40.51552        24.71947         1.55695
C         39.27087        25.44986         1.51226
C         40.54996        27.53392         1.92949
C         39.27728        26.82647         1.76861
C         40.56887        29.06110         1.77523
C         39.26050        29.77340         1.73475
C         40.61458        31.95100         1.35755
C         39.37370        31.24421         1.84399
C         40.43835        33.29155         0.69179
C         39.07491        33.90726         0.60361
C         40.00640        35.73574        -0.75497
C         38.95311        35.19640        -0.04334
C         39.96515        37.10391        -1.46870
C         38.85818        37.98849        -0.85849
C         39.99720        40.02401        -1.70671
C         38.83968        39.33113        -1.02587
C         40.11405        41.47478        -1.22222
C         38.83780        42.25209        -1.13767
C         40.20035        44.45668        -1.12835
C         38.89309        43.74023        -1.28744
C         40.22748        45.96098        -1.15910
C         38.94924        46.72550        -1.09232
C         40.24987        48.87017        -1.20614
C         38.99741        48.15219        -1.03587
C         40.26927        50.26682        -0.99210
C         39.05837        51.01645        -0.74123
C         40.30895        53.19231        -0.39054
C         39.05493        52.44579        -0.52020
C         40.34874        54.54880        -0.17397
C         39.11536        55.30921         0.10046
C         40.44825        57.54219         0.02655
C         39.13651        56.82510         0.10277
C         40.49441        58.94460         0.08307
C         43.52757        15.90638        -2.09424
C         42.43659        15.61462        -2.92672
C         43.30808        16.45814        -0.82214
C         41.96565        16.63476        -0.45455
C         42.99094        19.08428         0.85733
C         41.76628        18.46785         0.66682
C         42.99052        20.47419         1.16123
C         41.75533        21.19268         1.08019
C         42.90277        23.22494         1.83179
C         41.72453        22.58621         1.37369
C         43.00278        24.67237         1.80752
C         41.76673        25.39267         1.69572
C         42.98623        27.49928         1.37457
C         41.79901        26.81033         1.66405
C         42.94715        28.91230         1.04529
C         41.77534        29.67051         1.20871
C         42.77748        31.67942        -0.02314
C         41.92270        31.18462         1.14241
C         42.66447        32.94270        -0.60711
C         41.43331        33.70702        -0.33597
C         42.70236        35.76080        -1.88702
C         41.02911        34.78300        -1.09499
C         42.60308        37.14906        -1.75283
C         41.31787        37.86212        -1.61277
C         42.50084        40.00841        -2.21228
C         41.30281        39.23482        -1.66957
C         42.62117        41.45840        -1.80430
C         41.39711        42.21209        -1.42282
C         42.62754        44.40123        -1.79659
C         41.30878        43.68450        -1.80075
C         42.66326        45.88496        -1.93670
C         41.44362        46.69465        -1.61582
C         42.71496        48.82464        -1.77352
C         41.43752        48.08406        -1.61264
C         42.76419        50.29724        -1.50562
C         41.53692        51.07535        -1.11069
C         42.81659        53.17279        -0.04876
C         41.55464        52.33998        -0.22527
C         42.72384        54.53762         0.55205
C         41.65924        55.31828        -0.20066
C         42.87509        57.46624         0.38095
C         41.63906        56.79490         0.15048
C         42.88377        58.87728         0.43119
C         41.71269        59.60528         0.25522
C         45.56773        16.21693         0.41525
C         44.42518        17.05468         0.00675
C         45.34591        18.76882         1.79067
C         44.29112        18.36371         0.75600
C         45.39532        20.29486         2.02589
C         44.12578        21.05431         1.80007
C         45.79134        23.33388         2.24304
C         43.94336        22.36407         2.25800
C         45.51751        24.63384         1.59481
C         44.22812        25.37883         1.69190
C         45.38757        27.46373         0.86564
C         44.22248        26.76696         1.30608
C         45.32039        28.79086         0.34677
C         44.09855        29.50223         0.41269
C         45.15343        31.42325        -0.94009
C         43.91969        30.78793        -0.30387
C         45.11524        32.88463        -1.24089
C         43.83165        33.58551        -1.28095
C         45.09450        35.69423        -2.00290
C         43.86290        34.95419        -1.65412
C         45.06740        37.17683        -1.93979
C         43.87105        37.85876        -1.81669
C         45.15026        40.10907        -2.02216
C         43.85754        39.31054        -2.13245
C         45.13691        41.58060        -1.89187
C         43.80940        42.17170        -1.96506
C         45.52245        44.57551        -1.88699
C         43.66981        43.60300        -2.19163
C         45.28961        45.86736        -1.39768
C         44.04316        46.59206        -1.76603
C         45.05509        48.68596        -0.63725
C         44.01456        48.07801        -1.53984
C         45.19044        50.16903        -0.69976
C         44.14356        50.80239        -1.29058
C         45.28023        53.12024         0.31282
C         44.06952        52.81319        -0.43988
C         45.26096        54.48373         0.98290
C         43.99030        55.27232         0.89317
C         45.38014        57.27173         0.61335
C         44.10839        56.71601         0.61710
C         46.64621        16.76714         1.05855
C         47.93125        18.84270         1.56937
C         46.69058        18.13715         1.47539
C         47.99039        20.26931         1.65526
C         46.76761        21.02736         2.04332
C         48.08704        23.18176         1.53011
C         46.81424        22.50028         1.86100
C         48.06696        24.67195         1.29852
C         46.73669        25.33254         1.10221
C         47.96300        27.45086         0.42999
C         46.70553        26.81034         0.96735
C         47.81466        28.75177        -0.23507
C         46.52208        29.41619        -0.23672
C         47.62727        31.37232        -1.29624
C         46.42649        30.69773        -0.77549
C         47.60381        32.85529        -1.18795
C         46.31655        33.54383        -1.45323
C         47.67444        35.68540        -1.80938
C         46.40211        34.92963        -1.93468
C         47.65502        37.16548        -1.98529
C         46.34810        37.92390        -2.08700
C         47.55445        40.03869        -1.39917
C         46.38894        39.36812        -1.73805
C         47.53649        41.48405        -1.18099
C         46.35926        42.24318        -1.52750
C         47.57521        44.30429        -0.69286
C         46.47511        43.68392        -1.35422
C         47.54018        45.72000        -0.43652
C         46.34713        46.44462        -0.65614
C         47.50728        48.59780        -0.10665
C         46.22363        47.85064        -0.21390
C         47.50873        50.01408         0.37302
C         46.35274        50.87047        -0.03352
C         47.70910        52.90445         0.64467
C         46.53387        52.35638         0.10027
C         47.73175        54.28492         1.07798
C         46.56851        55.14145         0.98436
C         46.57679        56.52538         0.82163
C         50.36493        18.78913         1.25107
C         49.16719        18.13646         1.40329
C         50.42053        20.20595         1.14261
C         49.20900        20.94339         1.32784
C         50.43160        23.02932         0.77422
C         49.27106        22.37815         1.17440
C         50.46188        24.51461         0.65347
C         49.22097        25.31083         0.64079
C         50.32546        27.24065        -0.44154
C         49.17071        26.60879         0.17632
C         50.21502        28.60193        -0.86023
C         48.98614        29.30511        -0.79294
C         50.21240        31.48042        -1.40583
C         48.95184        30.68411        -1.32119
C         50.17307        32.83873        -1.53731
C         48.90101        33.57946        -1.31527
C         50.11373        35.73352        -1.38069
C         48.84612        35.02411        -1.62191
C         50.11489        37.20696        -1.55312
C         48.83484        37.92896        -1.53514
C         50.01906        39.95934        -0.84828
C         48.81099        39.29312        -1.30065
C         49.86767        41.30147        -0.25282
C         48.68120        42.12888        -0.61065
C         49.87691        44.22978         0.24883
C         48.70792        43.51733        -0.34231
C         49.94361        45.71355         0.11063
C         48.77813        46.40169        -0.07063
C         50.00362        48.73158         0.33827
C         48.80846        47.88208        -0.10711
C         49.78222        49.67073         1.51193
C         48.89257        50.56299         0.64063
C         49.93008        52.59572         1.90200
C         48.93786        52.06928         0.87231
C         49.77672        53.97900         2.38071
C         48.82570        54.79561         1.85285
C         52.90271        20.20446         0.75651
C         51.65864        20.88717         0.84000
C         52.84619        22.91929         0.11257
C         51.65306        22.28785         0.57698
C         52.75260        24.27600        -0.46112
C         51.65273        25.16123        -0.00164
C         52.76097        27.13170        -0.96742
C         51.53316        26.51334        -0.58287
C         52.74703        28.56958        -1.32758
C         51.41102        29.29773        -1.39434
C         52.68613        31.42264        -1.65949
C         51.47373        30.76969        -1.46132
C         52.74586        32.86825        -2.13424
C         51.35813        33.62354        -2.07494
C         52.67060        35.76880        -1.35335
C         51.40896        34.99255        -1.41782
C         52.61103        37.10768        -1.03411
C         51.39284        37.92512        -1.26151
C         52.44135        39.98624        -0.32727
C         51.25497        39.31427        -0.77757
C         52.42702        41.31376         0.06178
C         51.13207        41.97968         0.28045
C         52.44087        44.14512         0.62647
C         51.13734        43.45642         0.53811
C         52.48510        45.62739         0.48751
C         51.25562        46.42734         0.14665
C         52.43362        48.48459         1.22905
C         51.36219        47.98912         0.18597
C         52.18960        49.70503         2.11025
C         50.82237        50.26141         2.17058
C         51.77248        52.11429         3.59796
C         50.57124        51.58230         2.86826
C         54.07493        20.86144         0.43341
C         55.31874        22.94559        -0.28182
C         54.07820        22.23515         0.07301
C         55.28500        24.25471        -0.76509
C         54.01044        24.96781        -0.96532
C         55.21542        27.19647        -0.76187
C         53.96992        26.44078        -1.01088
C         55.17343        28.70481        -0.70402
C         53.95460        29.38734        -1.17710
C         55.24357        31.47531        -1.76748
C         53.94120        30.73593        -1.48788
C         55.17854        32.96221        -1.48301
C         53.94772        33.63701        -1.56250
C         55.13822        35.76343        -1.12582
C         53.91553        35.03802        -1.33319
C         55.12438        37.15653        -0.86050
C         53.82380        37.79627        -0.58896
C         54.97910        40.04195        -0.31437
C         53.72711        39.24003        -0.25292
C         54.88172        41.37788         0.29938
C         53.66209        42.01478         0.38654
C         54.88571        44.12842         0.94608
C         53.62155        43.43852         0.69008
C         54.82831        45.51516         1.27841
C         53.65863        46.29157         1.11498
C         54.56423        48.09147         2.58072
C         53.54958        47.59435         1.62392
C         54.48201        49.48717         3.16943
C         53.20560        50.21557         3.03843
C         52.95884        51.42780         3.71367
C         57.79151        23.00639        -0.34577
C         56.60562        22.33799        -0.09671
C         57.81917        24.33597        -0.83753
C         56.52756        24.95725        -1.08705
C         57.78576        27.23580        -0.87733
C         56.51948        26.54465        -1.06538
C         57.80369        28.69400        -0.65453
C         56.45611        29.47160        -0.68668
C         57.68358        31.54091        -1.13400
C         56.47001        30.84592        -1.14369
C         57.66153        32.99616        -1.19671
C         56.40656        33.67320        -1.29269
C         57.61174        35.84627        -1.13303
C         56.39212        35.09540        -1.17825
C         57.56751        37.26433        -0.98674
C         56.32430        37.88767        -0.78512
C         57.54041        39.98860        -0.05561
C         56.29017        39.35793        -0.54573
C         57.43160        41.20801         0.76743
C         56.10431        41.96158         0.87244
C         57.36673        44.13181         1.16783
C         56.08711        43.41547         1.08287
C         57.35045        45.61000         1.51247
C         56.01531        46.10425         1.91844
C         57.14952        48.22043         2.78987
C         55.92113        47.43792         2.59005
C         56.98935        49.58154         3.16330
C         55.76216        50.17570         3.38372
C         60.27342        24.44159        -1.11924
C         59.02100        25.09478        -1.04767
C         60.23903        27.28604        -1.17989
C         58.99286        26.54547        -1.08398
C         60.22765        28.72255        -1.22729
C         59.00575        29.44171        -1.05480
C         60.15775        31.65762        -1.50853
C         58.93573        30.83925        -1.14165
C         60.11964        32.96080        -0.67227
C         58.85989        33.73311        -1.03887
C         60.13067        35.87869        -1.23712
C         58.85523        35.13456        -1.13235
C         60.11083        37.40734        -1.22105
C         58.77928        38.16664        -1.21418
C         60.00176        40.05956         0.04715
C         58.76716        39.41002        -0.32116
C         59.99294        41.36998         0.63849
C         58.70781        41.93386         1.09585
C         59.88982        44.23233         1.41050
C         58.65207        43.42314         1.40479
C         59.81066        45.62224         1.87019
C         58.54979        46.26141         2.05548
C         59.63818        48.21132         3.02361
C         58.43487        47.56429         2.63966
C         61.45663        25.16337        -1.24707
C         61.44528        26.55854        -1.27463
C         61.43700        29.50368        -1.36346
C         61.42692        30.85893        -1.41738
C         61.36982        33.79605        -0.73869
C         61.36781        35.12350        -0.92607
C         61.30686        38.15235        -0.80519
C         61.23957        39.38785        -0.23170
C         61.12415        42.18770         0.76689
C         61.07505        43.54650         1.16694
C         60.97107        46.33130         2.24934
C         60.87274        47.60504         2.81526
O         56.58840        41.07678         1.96083
O         55.06605        27.90143         0.52139
O         23.07496        44.24646        -2.11860
O         47.13652        37.60649        -3.28652
O         34.74707        28.78219         3.18178
O         48.29852        33.31320         0.02529
O         34.51106        39.17994         2.25242
O         31.94610        53.35732        -0.09304
O         58.67212        42.42650         2.47138
O         42.97577        54.88336         1.92194
O         52.84965        49.80870         0.74790
O         31.96939        39.23166         2.74082
O         40.70329        28.41535         3.09841
O         55.90702        46.18406         3.38285
O         38.24479        44.19493        -2.53184
O         27.13731        45.63316         0.83650
O         32.35965        33.36171         0.34026
O         38.85792        31.85910         3.06237
O         24.87899        41.54528        -1.93337
O         33.38787        48.43925        -2.01588
O         28.74876        47.91764         0.86059
O         46.50964        50.30447         1.36707
O         32.41301        27.46568        -0.48782
O         32.57202        45.11400        -1.60685
O         50.22237        41.27397         1.17392
O         32.19988        24.97597         2.06455
O         44.85213        22.89715         3.17644
O         47.62361        27.48921         1.87810
O         39.13612        56.05956         1.35911
O         29.48764        42.44681         2.03396
O         54.14817        48.27484         3.98252
O         50.25236        52.57545         0.48268
O         43.46877        46.30597        -3.06752
O         56.45474        25.77648        -2.29623
O         40.89377        33.18482         2.09163
O         44.84721        18.35684        -0.59393
O         26.68580        38.53316        -0.57744
O         30.90321        49.19599         0.74411
O         24.46388        46.43941        -2.33196
O         35.25932        49.66287         0.81555
O         51.52734        25.14021         1.46133
O         48.14481        30.83591        -2.56157
O         41.70341        17.08206         0.84830
O         37.62838        27.26636         0.10777
O         45.73576        35.15828        -3.21768
O         30.60944        31.24751         2.95959
O         50.22652        43.82847         1.63165
O         48.24058        48.41109        -1.35995
O         57.47542        45.17766         0.12802
O         27.51937        27.33932        -1.31240
O         53.72230        38.26296         0.84512
O         57.19669        29.22685         0.55288
O         42.01654        51.12238        -2.47551
O         46.09978        20.56432         3.27129
O         44.62105        39.61541        -3.34670
O         31.09955        50.51528        -2.50323
O         43.72051        48.67139        -2.83937
O         30.15646        45.14003        -1.14145
O         41.60685        35.03028        -2.33627
O         24.66477        38.24299         2.34207
O         23.95961        34.27233         2.45655
O         50.71052        35.17352        -0.14413
O         27.21746        42.83259        -1.69581
O         55.61883        40.09686        -1.64541
O         45.08225        53.29374         1.76904
O         44.18914        30.66125        -1.74232
O         34.82677        31.56961         3.22338
O         40.97576        41.78544        -0.07141
O         52.15850        45.94316        -0.91234
O         44.73049        44.12728        -2.93301
O         60.27126        36.66992        -2.47997
O         50.95293        37.70236        -2.66135
O         34.23420        21.40278         1.74916
O         53.04548        24.32744        -1.88259
O         37.23324        36.29364        -1.46723
O         49.79342        50.02572        -0.47032
O         36.96709        54.86911         1.12123
O         35.40452        44.13468        -2.08562
O         22.41642        36.93643         2.32306
O         34.69758        46.40865         0.85503
O         45.92950        24.59678         0.14100
O         28.85447        39.91958        -0.34226
O         35.04272        27.61643        -0.18720
O         38.38701        20.45483        -1.49632
O         29.55307        38.03020         2.88499
O         48.38079        24.17072         2.62704
O         40.47738        45.15262         0.09995
O         52.02716        28.72574        -2.60028
O         44.28744        52.13662        -1.63887
O         45.12654        48.10214         0.71156
O         59.97673        32.52997         0.70695
H         59.89630        33.32372         1.27515
O         36.97734        39.89060        -2.34922
H         37.71634        40.04890        -2.98854
O         31.68725        20.55412         1.59915
H         32.50249        20.83984         2.08164
O         40.92812        43.61687        -3.21155
H         40.97804        44.51419        -3.60421
O         55.44210        31.33670        -3.21451
H         54.65200        31.75637        -3.64286
O         22.16197        41.47276        -2.03734
H         22.89202        41.28219        -2.66766
O         27.70415        33.57602        -0.62881
H         28.38892        33.07631        -1.12313
O         51.87001        48.35120        -1.09687
H         51.95850        49.32976        -1.10895
O         42.12927        55.27857        -1.59011
H         41.50876        55.79606        -2.14478
O         42.77801        31.47733         2.29508
H         42.46202        32.33235         2.67409
O         39.55028        36.85424        -2.82853
H         38.61912        36.52949        -2.79453
O         36.72385        22.10787         2.57267
H         35.84983        21.65727         2.68859
O         50.96978        33.93336        -3.44426
H         50.81270        33.08741        -3.91750
O         42.18788        40.13086        -3.64796
H         43.05983        40.15813        -4.11879
O         34.67955        35.76286        -0.84166
H         35.42202        35.96752        -1.46316
O         44.90730        18.19756         3.05290
H         45.38665        18.67950         3.76466
O         32.61652        39.99608        -0.76955
H         33.26397        40.46963        -1.33527
O         53.08421        32.73430        -3.55338
H         53.00434        33.62462        -3.96270
O         26.64794        33.57205         2.86807
H         25.76771        33.82660         3.23550
O         41.38874        51.74629         1.10735
H         41.45397        52.45979         1.77914
O         23.78256        24.96571         1.24743
H         22.86109        25.29418         1.32313
O         29.35590        35.64111        -0.40862
H         28.59321        35.21315        -0.86857
O         36.50256        25.34283         3.00010
H         36.50441        24.39329         3.25838
O         58.61127        38.68881        -2.56102
H         58.95945        38.00214        -3.17517
O         22.61399        28.93785         1.50576
H         23.33171        28.45010         1.96316
O         60.02900        32.08103        -2.89618
H         59.98955        31.28023        -3.45949
O         34.40347        54.92624         0.69458
H         34.97349        54.69668         1.46283
O         24.51425        31.32199        -1.68265
H         25.37095        30.89301        -1.89495
O         49.53090        51.38249         3.87026
H         49.87926        50.78564         4.56519
O         39.58849        40.13305        -3.10341
H         40.40899        40.17485        -3.65875
H         23.28484        23.68276        -1.39391
H         21.27804        25.00856        -1.92262
H         20.99110        27.31298        -1.06884
H         20.95867        29.23711        -0.98739
H         20.94543        31.65907        -0.89590
H         20.70230        33.35314         0.28537
H         20.59170        35.69151         0.86149
H         20.60977        37.67987         0.35975
H         20.78156        39.92947        -0.58124
H         21.06377        42.01328         0.67895
H         21.13291        44.40607         0.62661
H         21.51233        46.18301         1.19455
H         23.38469        49.96425         0.34535
H         21.69621        48.59922         1.55687
H         24.73903        22.60187        -0.34690
H         24.34118        50.90211        -1.68964
H         26.88895        21.43871        -0.45322
H         26.43711        52.15049        -1.96036
H         30.65196        19.40473        -0.79042
H         28.61240        20.67065        -1.08220
H         30.31256        54.30685        -2.19811
H         28.22269        53.09298        -2.23197
H         32.43367        18.94392        -1.60100
H         32.47976        55.09758        -2.60219
H         34.59667        17.85586        -1.92495
H         34.64914        56.23241        -2.13145
H         38.42100        15.61270        -1.89837
H         36.22219        16.65622        -1.57626
H         37.90931        58.57681        -0.49183
H         35.80437        57.41957        -0.69142
H         40.31760        15.84508        -3.31386
H         39.57035        59.53322         0.00986
H         44.55138        15.73219        -2.45280
H         42.62544        15.17728        -3.91680
H         43.82317        59.41196         0.62530
H         41.73723        60.70271         0.29591
H         45.57594        15.15445         0.13360
H         45.49845        58.34366         0.39989
H         47.53215        16.13003         1.20155
H         47.53447        57.06134         0.75931
H         51.28102        18.19239         1.15191
H         49.17031        17.03912         1.41866
H         50.47681        54.36746         3.13293
H         48.76602        55.83995         2.19187
H         52.95328        19.12966         0.97543
H         51.64219        53.04257         4.17173
H         55.00908        20.28457         0.40962
H         53.75692        51.85115         4.34169
H         58.73786        22.48568        -0.14286
H         56.66354        21.31242         0.29086
H         57.88500        50.20671         3.28963
H         55.73177        51.25471         3.59391
H         60.31528        23.34409        -1.10340
H         59.60269        49.20266         3.49448
H         62.41323        24.62880        -1.32450
H         62.40317        27.08628        -1.36794
H         62.40657        28.98678        -1.38856
H         62.38064        31.39591        -1.52877
H         62.32262        33.28734        -0.52621
H         62.32181        35.67028        -0.93831
H         62.29082        37.70562        -1.00390
H         62.18071        39.88442         0.04142
H         62.10919        41.79169         0.48305
H         62.03237        44.08534         1.21200
H         61.96288        45.87698         2.12368
H         61.78928        48.13129         3.11631
