         320
 CSIRO Nanostructure Databank - Neutral Graphene Oxide Data Set
C         30.33947        32.01074         0.73633
C         30.40720        33.19078         0.36504
C         30.42514        36.14095        -1.07307
C         30.40998        37.31483        -1.45867
C         30.66331        40.43417        -1.17894
C         30.37518        41.70611        -0.97924
C         32.67318        29.16641         0.97206
C         31.56827        29.73588         1.06315
C         32.71993        31.78537         0.19439
C         31.33493        30.99240         0.24434
C         32.75627        33.09303        -0.19472
C         31.56554        34.08033         0.09665
C         32.77648        35.88464        -1.19226
C         31.43431        35.03994        -1.06910
C         32.71247        37.34272        -0.72395
C         31.69963        38.10360        -1.66957
C         33.03060        40.31426        -1.25558
C         31.64432        39.56242        -1.33629
C         32.86727        41.84479        -0.98040
C         31.47619        42.51535        -0.89746
C         32.67969        44.57987        -0.27893
C         31.68535        43.87983        -0.54169
C         35.43281        27.55944         1.38320
C         35.18370        28.94304         1.12557
C         34.02662        29.60932         0.89362
C         35.26905        31.62534         0.03531
C         34.00153        31.13964         0.75272
C         35.26329        33.18793        -0.10815
C         34.03364        33.63167        -0.93130
C         35.40325        36.02971        -1.30483
C         34.07518        35.15855        -1.21508
C         35.24804        37.42633        -0.63029
C         34.04801        38.07110        -0.56070
C         35.20507        40.28960         0.14180
C         33.87664        39.55513        -0.14883
C         35.24926        41.78561         0.03771
C         34.03205        42.56971        -0.37027
C         35.24253        44.75110        -0.12394
C         33.95950        44.00395         0.29347
C         35.46033        46.10625         0.47115
C         37.81308        27.40313         1.63333
C         36.41633        26.81048         1.48842
C         37.72689        28.75919         0.78696
C         36.54157        29.66574         1.29323
C         37.72380        31.63643         0.39615
C         36.54189        31.03278         0.63708
C         37.78654        33.01485        -0.17013
C         36.58321        33.74348        -0.64123
C         37.60845        35.96553         0.12765
C         36.76553        35.26073        -0.95488
C         37.80410        37.43286        -0.23426
C         36.54985        38.21535        -0.64321
C         37.74381        40.29450        -0.04684
C         36.51012        39.48567         0.22580
C         37.73453        41.71854         0.33382
C         36.57108        42.53197        -0.19232
C         37.67760        44.56413         1.07614
C         36.48007        43.94111         0.40277
C         37.75857        46.10697         1.45015
C         36.48278        46.64328         0.88385
C         40.36195        24.60650         1.83961
C         39.35048        25.30800         1.92738
C         40.25126        27.20255         0.68604
C         38.98664        26.55954         1.21339
C         40.24150        28.66628         0.18503
C         39.09486        29.50033         0.83060
C         40.30849        31.66000         0.28189
C         39.00981        30.87146         0.13654
C         40.29037        33.00719         0.11588
C         38.97861        33.72242         0.45194
C         40.25602        35.96467         0.25825
C         38.95492        35.24843         0.35654
C         40.33618        37.39599        -0.21406
C         38.98495        38.09698        -0.13304
C         40.24821        40.31649         0.19404
C         39.02454        39.59703        -0.35643
C         40.26699        41.64939         0.48046
C         39.00183        42.37462         0.78480
C         40.21452        44.65578         0.72800
C         39.04488        43.84861         1.25205
C         40.37228        46.03474         1.31360
C         39.02011        46.71333         0.93356
C         40.19095        48.82750         0.24191
C         39.25449        47.97714         0.45399
C         42.96064        24.54938         1.35500
C         41.54671        24.95084         0.97211
C         42.81195        27.24913         0.46167
C         41.59280        26.57439         1.09484
C         42.75095        28.69599         0.26239
C         41.57208        29.39134         0.31746
C         42.74089        31.51311        -0.37144
C         41.61675        30.91321         0.48820
C         42.78338        33.04865        -0.47510
C         41.45069        33.80628        -0.44988
C         42.83845        35.93970         0.23566
C         41.54956        35.17884         0.21289
C         42.82591        37.41997         0.31999
C         41.48149        38.11640         0.57245
C         42.80877        40.29919         0.23462
C         41.52943        39.56532         0.11053
C         42.80636        41.77683         0.31100
C         41.48306        42.47288         0.05077
C         42.77497        44.64338         0.34519
C         41.48412        43.90873         0.55031
C         42.72162        46.12689         0.13513
C         41.52054        46.83778         0.68083
C         42.80593        48.84366         0.46330
C         41.50001        48.39284         1.00074
C         43.90063        25.20388         0.87079
C         45.25485        27.19315         0.02481
C         44.03833        26.57523         0.44503
C         45.22280        28.69747        -0.32743
C         44.08035        29.43699         0.37450
C         45.26272        31.58305        -0.18372
C         44.08952        30.90358        -0.04610
C         45.33033        33.08230         0.09343
C         44.07483        33.80256        -0.36113
C         45.27945        35.96675        -0.26440
C         44.11041        35.28305        -0.15747
C         45.30849        37.48789        -0.22212
C         43.99591        38.10303         0.24743
C         45.31734        40.28049         0.49230
C         44.02021        39.53966         0.72420
C         45.26848        41.77423         0.77843
C         43.97912        42.45091         0.36624
C         45.28051        44.66842         0.38733
C         44.02518        43.88766        -0.12879
C         45.24219        46.09917         0.32761
C         44.06837        46.83085        -0.26585
C         43.85024        48.24780         0.20279
C         47.51523        27.32803        -0.64170
C         46.46276        26.63559        -0.31333
C         47.79291        28.64826        -0.70882
C         46.58104        29.41865        -0.08069
C         47.81351        31.62530        -0.43307
C         46.52071        30.85773        -0.62275
C         47.77362        33.03854        -0.51501
C         46.59608        33.78080        -0.35730
C         47.88764        36.09213        -0.56271
C         46.52955        35.25637        -0.77755
C         47.81898        37.42166         0.21249
C         46.48946        38.07349         0.58134
C         47.75846        40.32567         0.81796
C         46.49267        39.60662         0.48967
C         47.79234        41.87915         0.78119
C         46.49678        42.47809         0.16610
C         47.76168        44.71063         0.08686
C         46.48810        43.98106         0.37894
C         47.68480        46.14903         0.41615
C         46.51401        46.59661         0.62271
C         50.24999        28.89039        -1.49595
C         49.11396        29.34848        -0.62245
C         50.26420        31.64105        -1.21877
C         49.01169        30.88049        -0.92617
C         50.32098        33.01617        -0.55646
C         49.03549        33.83579        -0.84029
C         50.34575        35.86922         0.13260
C         48.98082        35.15396         0.00351
C         50.32771        37.36308         0.56682
C         48.98926        38.08240         0.43498
C         50.39792        40.24402         0.86850
C         49.02840        39.52889         0.84602
C         50.29810        41.79426         0.77322
C         49.06834        42.36699         0.04737
C         50.38228        44.49927         0.11163
C         49.05103        43.94082        -0.12720
C         51.30812        29.51950        -1.67674
C         52.61591        31.78208        -1.75874
C         51.58140        30.91401        -1.58167
C         52.52036        33.04876        -1.45858
C         51.56060        33.85034        -0.95646
C         52.77716        36.10714        -0.64642
C         51.61532        35.20725        -0.39386
C         52.44825        37.33744        -0.52435
C         51.47897        38.18865        -0.09484
C         52.68604        40.42904         0.15259
C         51.40474        39.67577        -0.19329
C         52.69727        41.61001         0.51468
C         51.64696        42.56924         0.82165
C         51.46065        43.90596         0.25998
O         36.61556        43.94188         1.85078
O         41.64435        46.56372        -0.74795
O         35.52431        36.45292        -2.63205
O         35.10562        41.15048         1.33389
O         51.26704        35.16181         1.04709
O         48.30867        44.38787        -1.23962
O         50.82814        42.40408         1.98409
O         43.57338        33.40673        -1.67701
O         42.27621        35.27729         1.46180
O         44.21680        43.83609        -1.48966
O         33.35409        35.52740        -2.44906
O         37.39805        32.97731        -1.58736
O         38.10109        41.69603         1.76512
O         42.41205        44.20306         1.68346
O         42.33204        39.81848        -1.09047
O         33.81262        42.60846        -1.81558
O         39.36176        26.40792        -0.16510
O         49.30802        31.41166        -2.29988
O         48.28686        39.79304         2.09219
O         39.59836        35.83507         1.55837
O         36.72497        38.64695        -2.01301
H         36.34501        37.89965        -2.57960
O         34.03591        31.61506         2.13137
H         33.28431        31.20046         2.60848
O         44.32256        29.48220         1.81497
H         43.60947        30.06230         2.19115
O         32.13484        37.25907         0.58402
H         32.07058        38.16706         0.96306
O         37.60062        35.34493        -2.10937
H         36.99569        35.58236        -2.86482
O         37.39362        28.42952        -0.55139
H         38.21614        28.31674        -1.08836
O         41.29709        42.58014        -1.38284
H         41.54796        41.71504        -1.78249
O         45.32490        41.90368         2.23061
H         44.68071        41.24452         2.59531
O         46.43578        42.28812        -1.26072
H         45.63542        42.83105        -1.58150
O         48.55021        34.80368         1.32594
H         49.17090        34.12077         1.67130
O         50.98764        40.02738        -1.49893
H         51.62932        39.68169        -2.15297
O         35.30697        44.81806        -1.54012
H         34.41754        45.05949        -1.88193
O         49.01625        34.14120        -2.24529
H         49.07763        33.27656        -2.72186
O         36.87753        35.95047         1.35893
H         37.48070        36.26049         2.06845
O         50.38838        32.72416         0.85841
H         51.03415        33.34191         1.27915
O         36.72062        29.93313         2.70279
H         36.70540        29.07313         3.18465
O         38.92493        30.64979        -1.29273
H         38.73792        31.50690        -1.73612
O         46.34392        35.15527        -2.21593
H         47.22348        34.88902        -2.58848
O         46.89530        29.48541         1.32079
H         46.04719        29.47846         1.83944
O         31.28120        34.24130        -2.22615
H         31.30286        34.82680        -3.01268
O         45.31790        33.20069         1.55121
H         46.20422        32.95489         1.89085
O         50.99464        39.93680         2.12554
H         50.34098        40.14490         2.82750
O         50.58366        37.39819         1.97458
H         51.24923        36.69958         2.17411
O         35.15359        33.82311         1.17754
H         34.71516        33.21023         1.81580
O         39.22191        43.77757         2.70045
H         38.51451        43.17728         3.03505
O         38.01500        27.67696         3.01879
H         38.30852        26.84631         3.45427
O         31.93293        34.78392         1.27075
H         31.87551        34.17600         2.03542
O         32.12534        37.93608        -3.00115
H         31.62041        38.53282        -3.58885
O         41.97650        31.11410         1.89002
H         41.21127        30.76665         2.41362
O         49.55910        29.25866         0.73396
H         48.77349        29.10792         1.31180
O         41.05217        34.06790        -1.81667
H         41.86152        34.03471        -2.37655
O         41.36605        48.66728         2.34571
H         40.85188        47.94857         2.79126
O         41.28535        24.57700        -0.33569
H         41.04620        23.62957        -0.37824
O         40.01317        28.54726        -1.23680
H         40.67765        27.93074        -1.60857
O         31.03612        30.63688        -1.07092
H         30.16502        30.19325        -1.09909
O         35.23071        31.02315        -1.26551
H         35.94919        31.41818        -1.80983
O         39.18876        39.77321        -1.82420
H         38.34702        39.41430        -2.22501
O         40.52968        46.11887         2.73868
H         40.00403        45.37872         3.13848
O         33.91288        43.91676         1.68989
H         33.06247        43.52387         1.97206
O         47.91650        42.38944         2.10905
H         47.09056        42.15872         2.60271
O         43.92965        39.49044         2.18731
H         44.59492        38.81924         2.48270
O         41.17698        38.12807         1.97065
H         41.14909        37.19715         2.28693
O         41.71338        26.87280         2.50090
H         42.53811        26.45446         2.83061
O         48.33351        36.53887        -1.85646
H         47.61032        37.08812        -2.23711
O         40.71413        37.38053        -1.60409
H         40.48558        38.26086        -1.99052
O         46.42154        30.74868        -2.07400
H         46.33646        31.65180        -2.44651
O         45.55242        37.93062        -1.58599
H         44.81777        37.61232        -2.15303
O         39.47419        29.73562         2.20109
H         38.65830        30.03284         2.68090
O         34.05243        33.00029        -2.20780
H         33.39340        33.47153        -2.76816
O         36.81232        42.61000        -1.60473
H         36.21394        43.29828        -1.99084
O         33.07389        39.66559         1.04433
H         33.65469        39.53259         1.82431
O         49.08720        41.80537        -1.25737
H         48.24900        42.07199        -1.71383
O         46.25185        37.77485         1.98284
H         47.00610        38.16915         2.48373
O         38.77050        33.42735         1.86614
H         39.27946        34.09981         2.37590
O         36.63390        39.03014         1.59960
H         36.65909        39.83505         2.16639
O         33.68058        40.14432        -2.49442
H         33.92374        41.02967        -2.85249
O         42.46259        31.02698        -1.70391
H         43.06986        31.49023        -2.32230
O         44.89078        28.74937        -1.72182
H         45.64405        28.39203        -2.23794
O         44.19258        46.76559        -1.66480
H         43.29995        46.88107        -2.05940
O         37.76656        46.17274         2.86524
H         37.00960        45.63285         3.18473
