         344
 CSIRO Nanostructure Databank - Neutral Graphene Oxide Data Set
C          1.28182         3.38678        -0.03441
C          0.07476         4.12035         0.04598
C          1.28260         6.18832        -0.66781
C          0.03285         5.47031        -0.21332
C          1.24267         7.70421        -0.53726
C          0.04715         8.41886        -0.74653
C          1.16524        10.55680        -0.33627
C          0.00139         9.80291        -0.63857
C          1.10547        11.99608        -0.15555
C         -0.07172        12.74668        -0.26642
C          1.11444        14.91807        -0.05896
C         -0.08289        14.13880        -0.14943
C          1.11630        16.34688        -0.04621
C         -0.09294        17.12745        -0.15968
C          1.15274        19.18749         0.46649
C         -0.09038        18.47600        -0.00708
C          1.15884        20.68897         0.25520
C         -0.00467        21.41475         0.43517
C          1.18182        23.55105         0.33912
C         -0.00118        22.82558         0.44274
C          1.19219        25.01088         0.39023
C         -0.01441        25.76295         0.32894
C          1.22123        27.85795         0.33740
C          0.00075        27.14499         0.28237
C          1.26379        29.28451         0.24673
C          3.65460         3.42602        -0.64228
C          2.51792         4.06651        -0.22138
C          3.76545         6.26978        -0.28576
C          2.49280         5.55718         0.07661
C          3.72876         7.73974         0.08583
C          2.42954         8.43438        -0.30816
C          3.66466        10.56989         0.17074
C          2.39298         9.83881        -0.21742
C          3.57707        12.02824        -0.31074
C          2.35125        12.73543         0.29504
C          3.58047        14.92154        -0.04972
C          2.35209        14.22157        -0.00034
C          3.59327        16.32319        -0.18002
C          2.36907        17.06259        -0.08078
C          3.57400        19.24506        -0.50251
C          2.37505        18.47333        -0.03884
C          3.60686        20.68741        -0.06831
C          2.40296        21.39332         0.10629
C          3.64731        23.53880         0.09922
C          2.42416        22.83801         0.18348
C          3.67464        24.97388         0.32653
C          2.41993        25.69374         0.46585
C          3.66898        27.82822         0.59388
C          2.44499        27.13172         0.48173
C          3.70389        29.24828         0.45472
C          2.45855        29.95140         0.27178
C          6.18113         3.49802        -0.73962
C          4.87536         4.16681        -1.11639
C          6.13569         6.37475        -1.07860
C          4.86479         5.63480        -0.74272
C          6.14438         7.80974        -0.64071
C          4.95751         8.48436        -0.37535
C          6.12655        10.61556        -0.39972
C          4.94118         9.89896        -0.29276
C          6.13870        12.11773        -0.51839
C          4.84896        12.80732        -0.14284
C          6.10857        14.90459         0.03557
C          4.84505        14.17340        -0.04479
C          6.11794        16.34478        -0.08688
C          4.87059        17.03371        -0.58732
C          6.04288        19.21631        -0.17401
C          4.86722        18.51065        -0.27064
C          6.05494        20.64904        -0.18298
C          4.85803        21.37609        -0.09820
C          6.11861        23.51250        -0.05940
C          4.88938        22.82834        -0.04106
C          6.12584        25.01749        -0.13156
C          4.87757        25.65096         0.40591
C          6.21147        27.78601         0.86179
C          4.88832        27.03208         1.01041
C          6.20450        29.30881         0.61500
C          4.91251        29.95959         0.41971
C          8.63059         3.46843        -0.50681
C          7.37415         4.17606        -0.66880
C          8.58545         6.32624        -0.58615
C          7.40522         5.63715        -0.71368
C          8.61862         7.78169        -0.49749
C          7.38376         8.50530        -0.57902
C          8.61161        10.59833        -0.22095
C          7.37569         9.91997        -0.43534
C          8.60670        12.08118        -0.14959
C          7.29683        12.71878         0.26398
C          8.54091        14.91374         0.41194
C          7.31507        14.22186         0.16189
C          8.45532        16.35627         0.67546
C          7.25632        17.05822         0.17706
C          8.54624        19.27095         0.24599
C          7.36269        18.48598        -0.28250
C          8.56952        20.59584        -0.02333
C          7.34850        21.34843        -0.50894
C          8.56907        23.49534         0.12669
C          7.36839        22.81866        -0.09919
C          8.62029        24.93508         0.27735
C          7.41569        25.66758         0.30010
C          8.67499        27.76415         0.45454
C          7.44842        27.05691         0.52018
C          8.65440        29.19952         0.24349
C          7.44893        29.89862         0.14849
C         11.10384         3.44228        -0.43388
C          9.84514         4.12023        -0.49842
C         11.09228         6.27938        -0.18782
C          9.89261         5.60215        -0.78477
C         10.98078         7.66785         0.37448
C          9.80050         8.46108        -0.15566
C         11.00010        10.60096         0.47244
C          9.79387         9.88031        -0.02714
C         11.09156        12.07513         0.42929
C          9.85645        12.83168         0.16100
C         10.98228        14.96055         0.83198
C          9.77024        14.25796         0.56388
C         11.00976        16.35888         0.90546
C          9.73805        17.10816         0.98082
C         11.06134        19.22685         0.54398
C          9.73599        18.63671         0.96969
C         11.09432        20.58867         0.23213
C          9.85972        21.35610        -0.15087
C         11.10328        23.46936         0.20557
C          9.81988        22.72872         0.50006
C         11.10977        24.88069         0.24214
C          9.87680        25.62522         0.36522
C         11.16702        27.76791         0.28110
C          9.91069        27.05269         0.36715
C         11.12862        29.20359        -0.01250
C          9.87928        29.84321        -0.06994
C         13.57554         3.49209        -0.44440
C         12.30701         4.14906        -0.39421
C         13.53880         6.29678         0.04458
C         12.28262         5.59517        -0.16982
C         13.48802         7.73750         0.27141
C         12.30185         8.40591         0.34090
C         13.54795        10.61971         0.67314
C         12.28655         9.84493         0.68726
C         13.52270        12.02981         0.77388
C         12.25356        12.73077         0.74786
C         13.52041        14.90355         0.91972
C         12.22924        14.17200         1.19923
C         13.47980        16.34234         0.99524
C         12.27312        17.06558         0.94180
C         13.49969        19.20788         0.59879
C         12.27813        18.51187         0.75233
C         13.53358        20.58418         0.23667
C         12.30867        21.29453         0.10853
C         13.52684        23.45257        -0.13511
C         12.30081        22.74895         0.02596
C         13.55732        24.84747        -0.07182
C         12.34788        25.57328         0.13925
C         13.66245        27.60551         0.36398
C         12.36469        27.00657         0.26796
C         13.57918        29.64373        -0.22407
C         12.23997        29.97646        -0.48475
C         16.05144         3.53646        -0.47173
C         14.76833         4.19685        -0.32498
C         16.04344         6.37377        -0.19601
C         14.73881         5.62323        -0.08253
C         16.03916         7.73025         0.46926
C         14.74490         8.45651         0.60213
C         16.00371        10.63554         0.60137
C         14.77226         9.93223         0.61475
C         15.98953        12.06085         0.65077
C         14.74986        12.75998         0.75172
C         15.98449        14.98397         0.48802
C         14.71403        14.20807         0.78073
C         16.05086        16.28326         1.29727
C         14.74390        17.05999         1.23257
C         16.02951        19.20512         0.65069
C         14.75778        18.54723         0.96984
C         15.98363        20.53243         0.20263
C         14.78224        21.24867         0.03397
C         15.99894        23.42588         0.16112
C         14.80562        22.70085        -0.44807
C         16.04593        24.92907         0.42917
C         14.87286        25.55031        -0.36420
C         16.02198        27.74520        -0.40964
C         14.84603        27.02036        -0.06845
C         15.92790        29.10247        -0.92528
C         14.72514        29.88187        -0.98673
C         18.52442         3.53070        -0.43711
C         17.24709         4.17615        -0.25261
C         18.51553         6.36225         0.08895
C         17.24023         5.57655         0.32496
C         18.51439         7.78534         0.20153
C         17.28926         8.51237         0.37551
C         18.50218        10.63599         0.47724
C         17.26221         9.90764         0.49206
C         18.49204        12.06331         0.60726
C         17.24885        12.79053         0.64843
C         18.48943        14.91729         0.77957
C         17.26296        14.19343         0.68058
C         18.50600        16.36505         0.83820
C         17.28438        17.09368         0.91503
C         18.52733        19.21878         0.61927
C         17.27384        18.49141         0.74948
C         18.54134        20.62534         0.40939
C         17.25860        21.29555        -0.02174
C         18.85575        23.66229         0.49784
C         16.99922        22.64146         0.59293
C         18.62687        25.00854         0.03181
C         17.37635        25.64424         0.01707
C         18.38760        27.63561        -1.09886
C         17.27499        27.00874        -0.49037
C         18.20908        28.85719        -1.83744
C         17.00684        29.57782        -1.69735
C         19.69148         4.23132        -0.34706
C         20.93013         6.39682        -0.21394
C         19.71180         5.66908        -0.13853
C         20.94634         7.76794        -0.05396
C         19.74629         8.50119         0.15287
C         20.94340        10.67973         0.36297
C         19.73174         9.93528         0.32836
C         20.93880        12.04345         0.52974
C         19.72217        12.77356         0.64466
C         20.93917        14.94218         0.84447
C         19.72295        14.20847         0.77046
C         20.95052        16.31913         0.85064
C         19.74445        17.06644         0.81531
C         20.96543        19.25229         0.70663
C         19.75711        18.51179         0.74115
C         20.96679        20.62253         0.51938
C         19.76047        21.34145         0.34270
C         20.88490        23.37721        -0.74887
C         19.82358        22.79022         0.03099
C         20.94886        24.72971        -0.92044
C         19.87581        25.62777        -0.46638
C         20.73485        27.56975        -2.01848
C         19.74018        27.07372        -1.07547
C         20.45734        28.66040        -2.81461
C         19.23296        29.33792        -2.69044
O         14.67546        17.99452         2.36154
O          3.77402         7.83397         1.52561
O         11.40079        10.12859         1.83266
O          9.34967        12.69277        -1.24481
O          6.39442        28.69577         1.97105
O         20.29750        26.80692         0.26031
O         13.75365        28.86432         0.94935
O         17.96009        23.17355         1.46306
O          8.85988        16.65064         2.07727
O         15.40251         7.82026         1.77260
O          6.18138         6.43404        -2.56715
H          6.99759         6.92161        -2.81268
O          2.36889        12.69472         1.74678
H          2.76199        11.82499         2.02725
O         12.15344        14.06695         2.66653
H         12.25052        14.97140         3.03451
O         17.41065        21.54934        -1.45489
H         17.44767        20.68105        -1.90771
O          6.09044        25.31043        -1.60158
H          5.37823        24.75545        -1.98749
O         10.11517         5.68807        -2.25336
H          9.47593         5.07373        -2.67478
O         10.01197        21.61839        -1.59503
H         10.24067        20.76692        -2.02566
O          7.07873        12.37901         1.65599
H          7.71076        12.88266         2.21025
O          3.36802        11.93437        -1.75507
H          3.29643        12.84780        -2.10662
O         15.92793        15.38566        -0.91515
H         15.94078        14.57234        -1.46209
O          9.75362        22.52087         1.93544
H          9.77009        23.39623         2.37510
O          6.35299        12.41437        -1.92551
H          5.59136        12.03903        -2.41897
O          7.64257        18.41145        -1.72762
H          7.50388        19.32310        -2.08640
O          1.17019        19.03470         1.94316
H          1.12546        18.07259         2.13270
O          2.27811         5.69710         1.49013
H          2.80854         6.49770         1.79604
O         15.15609        25.42002        -1.77791
H         15.15521        24.45635        -2.01421
O          3.44147        19.30475        -2.00728
H          4.12683        19.93553        -2.32126
O         10.68434         7.48276         1.80363
H         10.78462         8.37392         2.22288
O          3.74362        10.49039         1.61992
H          3.78118         9.49568         1.82552
O          4.86251        16.93106        -2.04939
H          4.23226        17.62417        -2.37133
O          1.46364         5.88904        -2.08182
H          0.73626         6.31568        -2.58057
O          9.59700        19.06703         2.35275
H          9.07344        18.37082         2.81505
O         14.93705        22.68411        -1.90993
H         14.12118        22.28232        -2.27582
O          4.72450        26.80882         2.45358
H          5.05062        27.62590         2.89831
O         17.07551         5.44393         1.75975
H         17.84698         4.95261         2.10977
O         16.23411        15.89366         2.67857
H         15.97160        16.66743         3.22697
O         15.82179        25.17936         1.82910
H         16.52814        24.71097         2.32556
O         16.25772         6.63074        -1.61168
H         16.25738         5.76691        -2.07622
O          4.80863         4.06568        -2.58157
H          5.30040         4.84723        -2.93612
O          7.38776        21.34381        -1.98734
H          8.26076        21.74802        -2.22651
H          1.25819         2.28761         0.02093
H         -0.85671         3.58470         0.28440
H         -0.92998         6.00090        -0.15537
H         -0.88341         7.87785        -0.97443
H         -0.96431        10.30892        -0.77353
H         -1.03161        12.24415        -0.45648
H         -1.05343        14.65144        -0.20309
H         -1.03526        16.61884        -0.40988
H         -1.02923        19.03625        -0.12141
H         -0.95901        20.89909         0.60905
H         -0.95947        23.34149         0.58842
H         -0.98095        25.24469         0.27178
H         -0.94333        27.70205         0.19468
H          0.32001        29.83796         0.13451
H          3.60796         2.34787        -0.87198
H          2.48704        31.04652         0.17624
H          6.19161         2.39723        -0.69275
H          4.90032        31.02630         0.15186
H          8.60023         2.37004        -0.43043
H          7.44285        30.92667        -0.24226
H         11.11738         2.34189        -0.40157
H          9.84906        30.90972        -0.33919
H         13.60332         2.40418        -0.61030
H         12.01525        30.84662        -1.11999
H         16.05263         2.48028        -0.78608
H         14.66939        30.64346        -1.77898
H         18.54080         2.45760        -0.68145
H         16.90156        30.53603        -2.22669
H         20.65290         3.71996        -0.50234
H         21.86866         5.85289        -0.39438
H         21.91070         8.29073        -0.10509
H         21.90820        10.16509         0.26598
H         21.90192        12.56884         0.55599
H         21.90074        14.41428         0.87747
H         21.91892        16.83542         0.87934
H         21.92976        18.73980         0.82021
H         21.92367        21.16275         0.49482
H         21.69224        22.73715        -1.13217
H         21.83548        25.17545        -1.39095
H         21.73814        27.12396        -2.02010
H         21.22246        29.04367        -3.50410
H         19.05509        30.25594        -3.26775
