         261
 CSIRO Nanostructure Databank - Neutral Graphene Oxide Data Set
C        -11.22378         0.65631         0.72827
C        -10.10399         1.51994         0.44048
C         -8.92940         0.97762        -0.31603
C         -7.49274         1.36607         0.14534
C         -6.47203         0.77655        -0.84900
C         -5.19761         1.54169        -1.06077
C         -3.87845         0.80215        -1.10792
C         -2.68098         1.60664        -1.63997
C         -1.34658         0.80627        -1.62831
C         -0.05275         1.53990        -1.43485
C          1.20715         0.85830        -0.98638
C          2.50349         1.60702        -1.16049
C          3.77999         0.84686        -1.35628
C          5.09253         1.58878        -1.34256
C          6.21198         0.80233        -0.68722
C          7.26257         1.50800         0.12983
C          8.51470         0.76929         0.56470
C          9.73543         1.58764         0.97147
C         10.98551         0.73423         1.06929
C        -10.10290         2.90299         0.45632
C         -8.88312         3.64290         0.18157
C         -7.56929         2.90301         0.39025
C         -6.37557         3.66214        -0.11442
C         -5.14399         3.00360        -0.62305
C         -3.81142         3.67419        -0.37318
C         -2.57700         3.00341        -0.90047
C         -1.24181         3.52394        -0.42919
C         -0.07289         3.03223        -1.22993
C          1.20623         3.79219        -1.24144
C          2.50952         3.07658        -1.52656
C          3.80590         3.84523        -1.51294
C          5.18061         3.13756        -1.43367
C          6.16884         3.79548        -0.46009
C          7.32061         3.01917         0.09785
C          8.65392         3.68179         0.12829
C          9.87716         2.79223         0.03286
C         -8.81660         5.02193         0.11211
C         -7.56998         5.76408         0.27292
C         -6.40568         4.91060         0.71930
C         -5.03492         5.52738         0.96941
C         -3.74583         4.78129         0.67430
C         -2.35106         5.42395         1.09080
C         -1.14161         4.80432         0.34324
C          0.14413         5.62309         0.30167
C          1.23701         5.18533        -0.65418
C          2.49207         5.99161        -0.78310
C          3.79914         5.34676        -1.24065
C          5.10843         6.05291        -0.96373
C          6.44354         5.26382        -0.91881
C          7.52896         5.85244        -0.00417
C          8.73766         5.03330         0.08629
C         -7.47980         7.12222         0.33014
C         -6.21855         7.81725         0.69244
C         -4.98213         7.03430         1.04795
C         -3.65567         7.64257         0.65700
C         -2.39012         6.96835         1.11420
C         -1.12137         7.76241         1.07429
C          0.18627         7.04626         0.82012
C          1.46497         7.91990         0.72324
C          2.53449         7.40651        -0.23675
C          3.80681         8.17494        -0.24062
C          5.00915         7.28700        -0.10700
C          6.13576         7.75430         0.75100
C          7.42596         7.04067         0.63789
C         -6.06538         9.23188         0.25381
C         -4.86928         9.82722         0.11210
C         -3.59648         9.06682         0.20127
C         -2.32161         9.81343         0.35741
C         -1.16753         9.21989         0.72863
C          0.06226        10.02367         1.11579
C          1.35228         9.43763         0.59021
C          2.48968        10.17510         0.51477
C          3.87928         9.62716         0.22830
C          4.93839         9.87132         1.28033
C          6.02461         9.09043         1.39859
C        -11.22560        -0.72179         0.70997
C        -10.08804        -1.58823         0.52537
C         -8.66697        -1.10831         0.51603
C         -7.74018        -1.59293        -0.61235
C         -6.53036        -0.76103        -1.02491
C         -5.20593        -1.41064        -1.49801
C         -3.90366        -0.69324        -1.13929
C         -2.64452        -1.47263        -1.46887
C         -1.35952        -0.71386        -1.56604
C         -0.10361        -1.41451        -1.09544
C          1.15464        -0.63750        -0.81247
C          2.48838        -1.33696        -0.66537
C          3.73934        -0.66875        -1.16530
C          5.02146        -1.43895        -1.09079
C          6.32282        -0.68235        -0.96566
C          7.52154        -1.40487        -0.45099
C          8.64864        -0.67218         0.22605
C          9.99601        -1.34845         0.05683
C         11.08351        -0.56657         0.75977
C        -10.01031        -2.94822         0.74183
C         -8.70390        -3.60648         0.63153
C         -7.77386        -3.12612        -0.47464
C         -6.36947        -3.65852        -0.60801
C         -5.18341        -2.92706        -1.17258
C         -3.88711        -3.71212        -1.26785
C         -2.61020        -2.93613        -1.05163
C         -1.30395        -3.66655        -1.00818
C          0.00096        -2.92919        -1.38382
C          1.14728        -3.53828        -0.56382
C          2.48020        -2.82322        -0.52133
C          3.73158        -3.64920        -0.71066
C          5.05398        -2.92881        -0.82591
C          6.31131        -3.65885        -0.46542
C          7.38377        -2.79195         0.22699
C          8.71822        -3.49897         0.42491
C          9.89226        -2.80804         0.46116
C         -8.41929        -4.80690         1.22081
C         -7.24663        -5.58161         0.85062
C         -6.52022        -5.13842        -0.40580
C         -5.25436        -5.93967        -0.77912
C         -3.94710        -5.22121        -1.18437
C         -2.59010        -5.94488        -1.00834
C         -1.28957        -5.18388        -1.08409
C          0.03549        -5.88288        -0.75375
C          1.13749        -4.99922        -0.23902
C          2.39700        -5.64753         0.28606
C          3.71440        -4.99834        -0.05391
C          4.96349        -5.56030         0.65137
C          6.25301        -5.13109        -0.05168
C          7.48224        -5.64098         0.67606
C          8.63399        -4.90379         0.78363
C         -7.06574        -6.81791         1.38896
C         -5.86532        -7.66388         1.10588
C         -5.10646        -7.30425        -0.17107
C         -3.80073        -8.06979        -0.24994
C         -2.52121        -7.28524        -0.30855
C         -1.22293        -8.00968        -0.09775
C          0.09039        -7.36874        -0.50079
C          1.33929        -8.04922         0.03254
C          2.43467        -7.11694         0.52717
C          3.76741        -7.80016         0.72246
C          5.04005        -7.07135         0.38024
C          6.27856        -7.77966         0.87234
C          7.43406        -7.05145         1.00927
C         -6.08707        -9.15820         1.19683
C         -5.06489        -9.98154         0.92444
C         -3.77492        -9.44787         0.40647
C         -2.50551        -9.92246         0.89186
C         -1.25285        -9.53111         0.16756
C          0.02567       -10.05566         0.78880
C          1.17832        -9.35283         0.77207
C          2.47672        -9.84512         0.15490
C          3.77817        -9.29148         0.70571
C          5.10648        -9.94503         0.59735
C          6.24240        -9.23395         0.83014
O         -3.82864        -9.22892        -1.10317
O          4.52298         1.12036        -2.57731
O          8.28228        -0.27861         1.56787
O          4.29626        -1.28462        -2.35994
O         -6.03455         3.81582        -1.48894
O         -1.94331        -3.18466         0.21601
O          1.43269         6.06858        -1.80197
O          0.66941        -4.00320         0.72174
O         -1.85506        -5.82453        -2.25375
O          5.99245        -3.47152        -1.83766
O          2.19078        -6.18082         1.62845
O         -6.86899         4.43556         2.04890
O          6.96970         5.14868        -2.19542
O         -6.18060         1.38395        -2.12081
O         -5.75517         7.64676         2.10383
O         -1.80725         7.49993         2.33467
O         -3.57117         7.94491        -0.77655
O         -0.49399         1.17752        -2.77005
O         -6.10758        -3.52983        -2.07561
O         -7.37998         3.07422         1.85620
O          6.21995         3.58576         0.93599
O         -7.64718        -5.31344        -1.42611
O          3.71094        -8.54340         1.97505
O          2.64427        -1.95431         0.64472
O         -8.16994        -0.98698         1.63423
O          6.19531        -5.93953        -1.29741
O         -3.73477         0.01555         0.12332
O         -1.99610        -1.27204        -2.75885
O          6.82968        -2.52151         1.47289
O          3.69702        -4.84499        -1.51588
O          4.50045         6.11971        -2.26739
O         -3.21911         4.07986        -1.64705
O          0.52594         5.91527         1.67185
O          2.94571         8.19512        -1.41412
O         -4.43020         4.61895         1.93881
O         -1.84113        -7.23693         0.98886
O          5.08223         6.85005         1.30090
O         -0.91432         3.46762         0.97703
O          1.88391         1.47056         0.15614
O         -5.68229        -7.15116        -1.48125
O          1.98968         7.96735         2.03131
O          5.20566        -7.02925        -1.08694
O          0.33849        -6.83082        -1.81929
O          3.13734         3.47233        -2.76505
O         -7.64312        -1.08916        -1.93836
O          0.22779        -1.01785         0.25402
O         -9.13126         0.68035        -1.48373
O          6.06247         1.00567         0.76792
O          7.37278        -1.18811        -1.85761
O          2.10818        -8.90876        -0.97060
O         -8.35534        -3.96989        -1.58257
O          0.29643         3.77708        -2.40387
O         -3.92245        -4.53928        -2.46228
O         -3.01472         1.86120        -2.99689
H         -2.19611         2.10892        -3.48160
O          5.83289         3.36195        -2.69875
H          5.22904         3.83811        -3.31221
O         -1.28820       -10.19993        -1.12761
H         -2.15599        -9.98849        -1.55233
O          0.17358         9.99530         2.54303
H          0.70486         9.18960         2.77979
O          4.93697        -5.21230         2.02033
H          4.07537        -5.49439         2.40323
O         -2.15341         5.08520         2.45895
H         -1.85589         4.15236         2.52098
O          9.47545         2.12660         2.28255
H          9.10550         1.39934         2.82990
O          9.95603         2.28211        -1.30144
H          9.97694         3.03206        -1.93110
O         -6.96800         0.83671         1.36095
H         -7.49758         1.13377         2.13175
O         -4.87745        -7.32261         2.13763
H         -5.29371        -7.44340         3.01713
O          0.27405        -3.11149        -2.77186
H         -0.46248        -2.72610        -3.29916
O         10.28651        -1.30827        -1.36638
H         11.13112        -1.77813        -1.52397
O         -5.17969        -1.33191        -2.92799
H         -5.99108        -1.77700        -3.26442
O          4.35096        10.37736        -0.92812
H          3.83141        10.05932        -1.70106
H         12.04165        -1.08624         0.92598
H         11.85263         1.23901         1.52511
H         10.79972         3.38599         0.28104
H          9.71761         5.53082         0.16217
H          8.27492         7.40449         1.23795
H          6.82380         9.36587         2.10422
H          4.88189        10.81482         1.84327
H          2.41064        11.27430         0.54419
H         -0.05245        11.08816         0.78457
H         -2.35253        10.90432         0.20705
H         -4.80884        10.89494        -0.14698
H         -6.98997         9.81139         0.10869
H         -8.35540         7.74597         0.09166
H         -9.74914         5.60158         0.02873
H        -11.01034         3.46339         0.73516
H        -12.17000         1.15507         0.99353
H        -12.18403        -1.22481         0.91540
H        -10.89036        -3.54977         1.01984
H         -9.10843        -5.23959         1.96078
H         -7.73505        -7.15166         2.19772
H         -7.05607        -9.54768         1.54225
H         -5.16616       -11.07244         1.02514
H         -2.47236       -10.60920         1.74942
H          0.05940       -11.14288         0.96340
H          2.52017       -10.90713        -0.17442
H          5.15003       -11.03530         0.45818
H          7.20693        -9.76216         0.87778
H          8.36445        -7.54799         1.32575
H          9.53948        -5.38690         1.18495
H         10.82762        -3.34329         0.69618
