         236
 CSIRO Nanostructure Databank - Neutral Graphene Oxide Data Set
C        -11.02788         0.85601         0.58947
C         -9.78075         1.62364         0.63387
C         -8.49590         0.83474         0.38931
C         -7.27983         1.52662        -0.08448
C         -6.14679         0.74166        -0.22625
C         -4.77451         1.24982         0.02877
C         -3.65416         0.62372        -0.72455
C         -2.50147         1.39336        -1.11566
C         -1.31326         0.69066        -1.39675
C         -0.05231         1.40251        -1.73990
C          1.22533         0.69706        -1.45581
C          2.50988         1.43787        -1.45592
C          3.62398         0.54786        -1.74567
C          5.57499         1.69769        -1.86600
C          6.60635         0.73221        -1.36161
C          7.56930         1.26893        -0.38591
C          8.68164         0.49090        -0.03621
C          9.68827         1.05634         0.77826
C         10.78516         0.23456         1.25216
C         -9.73403         3.07597         0.38908
C         -8.57347         3.72739         0.03863
C         -7.37510         2.97163        -0.44227
C         -6.26330         3.80204        -1.08895
C         -4.94782         3.18686        -1.48063
C         -3.74562         3.67370        -1.05205
C         -2.44388         2.89031        -0.86732
C         -1.28009         3.63851        -1.53163
C          0.04773         2.92742        -1.90976
C          1.25499         3.47095        -1.09563
C          2.59146         2.78059        -1.24992
C          3.88539         3.65347        -1.30995
C          5.24498         2.92999        -1.10964
C          6.28096         3.43763        -0.35639
C          7.47581         2.65015        -0.04459
C          8.55886         3.22373         0.67085
C          9.61333         2.42361         1.10829
C         -8.54384         5.15731        -0.00009
C         -7.44521         5.93704        -0.36350
C         -6.24299         5.27508        -0.85259
C         -4.97435         5.86751        -0.86240
C         -3.74918         5.05700        -0.43609
C         -2.45018         5.81304        -0.68233
C         -1.25380         5.11276        -1.23899
C          0.12360         5.81043        -1.22341
C          1.23044         4.90064        -0.70456
C          2.50772         5.52297        -0.25656
C          3.73977         4.84387        -0.34535
C          4.85729         5.37227         0.35057
C          6.25019         4.91159         0.01386
C          7.28118         5.32895         1.03786
C          8.64587         4.71890         0.86452
C         -7.48418         7.32213         0.09925
C         -6.61455         8.29830        -0.30452
C         -4.81750         7.27052        -0.89781
C         -3.67979         7.93643        -0.43548
C         -2.44758         7.17903        -0.51230
C         -1.18894         7.93754        -0.36439
C          0.08859         7.17445        -0.48326
C          1.15580         7.53422         0.51331
C          2.37530         6.68645         0.53823
C          3.40024         6.93556         1.45436
C          4.67268         6.37567         1.31293
C          5.76762         6.98893         2.17496
C          7.07696         6.28327         1.95833
C         -6.23616         9.54406         0.33594
C         -4.94868        10.00622         0.35627
C         -3.70786         9.31234         0.01677
C         -2.51336         9.91310         0.41339
C         -1.24616         9.24223         0.35751
C         -0.06539         9.82078         0.75907
C          1.14029         8.99535         1.01852
C          2.44146         9.68951         1.21850
C          3.49354         9.08856         1.83453
C          4.91681         9.41272         1.76903
C          5.90628         8.49466         1.88876
C        -11.01514        -0.50842         0.64404
C         -9.80223        -1.27598         0.51234
C         -8.59155        -0.62107         0.23155
C         -7.43337        -1.35240        -0.16872
C         -6.23350        -0.69405        -0.36326
C         -5.10011        -1.42893        -1.04667
C         -3.75705        -0.72960        -0.98325
C         -2.55697        -1.49480        -1.48256
C         -1.27905        -0.71679        -1.33777
C         -0.05001        -1.41021        -0.91242
C          1.22726        -0.63721        -0.77010
C          2.57823        -1.34975        -0.50837
C          3.76508        -0.69497        -1.21897
C          5.09304        -1.39060        -1.10539
C          6.43119        -0.77757        -1.60784
C          7.60200        -1.57613        -1.02628
C          8.90270        -0.86127        -0.69712
C          9.85290        -1.73063         0.11017
C         10.82738        -1.09307         0.97784
C         -9.78635        -2.70608         0.66056
C         -8.67292        -3.46159         0.34529
C         -7.56306        -2.82742        -0.47492
C         -6.22973        -3.56057        -0.40509
C         -5.06641        -2.90965        -0.69202
C         -3.78017        -3.63242        -0.89131
C         -2.50055        -2.89076        -0.89428
C         -1.30377        -3.57711        -0.75057
C         -0.01928        -2.88820        -0.82645
C          1.19441        -3.55400        -0.76500
C          2.47678        -2.81031        -0.97482
C          3.74239        -3.58170        -1.16111
C          5.06877        -2.88739        -0.97125
C          6.32452        -3.67899        -1.11155
C          7.57600        -2.94329        -1.05222
C          8.89147        -3.70550        -1.03598
C          9.84177        -3.07530        -0.04802
C         -8.57642        -4.82304         0.76865
C         -7.43017        -5.57954         0.60594
C         -6.28735        -5.02743        -0.16299
C         -5.00142        -5.82099        -0.18072
C         -3.74130        -5.12383        -0.58428
C         -2.45190        -5.72455        -0.21642
C         -1.29183        -4.99650        -0.45768
C         -0.01769        -5.70926        -0.51055
C          1.25341        -4.98830        -0.59732
C          2.44837        -5.70433        -0.50695
C          3.71151        -5.07466        -0.98674
C          5.01868        -5.78434        -0.84899
C          6.30402        -5.04181        -0.93740
C          7.53709        -5.81694        -0.78710
C          8.74610        -5.18311        -0.81796
C         -7.32019        -6.91654         1.11228
C         -6.12221        -7.60648         1.16999
C         -4.88776        -7.01227         0.68859
C         -3.66008        -7.55162         1.00654
C         -2.41892        -7.00243         0.47346
C         -1.20358        -7.63115         0.70765
C          0.00348        -7.15930         0.04077
C          1.31422        -7.71802         0.38384
C          2.46896        -7.05928        -0.00750
C          3.76604        -7.70761         0.31911
C          5.05308        -7.06223        -0.07256
C          6.29121        -7.87330        -0.17237
C          7.45897        -7.24889        -0.52584
C         -6.03879        -8.95378         1.71607
C         -4.85105        -9.50792         2.03240
C         -3.58272        -8.69681         2.00043
C         -2.32677        -9.50528         1.87073
C         -1.05150        -8.74225         1.71810
C          0.17747        -9.58391         1.49483
C          1.33475        -9.04706         0.98549
C          2.58754        -9.78118         0.94746
C          3.76504        -9.16227         0.61308
C          5.02939        -9.86338         0.56131
C          6.20205        -9.27004         0.18578
O         -5.47118        -1.39695        -2.47455
H         -4.65411        -1.63914        -2.98219
O          9.57770        -0.60975        -1.97542
H          8.97809        -0.05666        -2.52262
O         -3.89685         4.98775         1.01774
H         -3.14645         4.43697         1.34386
O         -3.79624        -4.64619        -1.96170
O          0.65042         0.66340        -2.80031
O         -5.05672         2.11557        -2.31190
H         -6.01128         2.05201        -2.56887
O          9.48408        -3.52159        -2.35981
H          9.61787        -2.54922        -2.48088
O          2.80074        -1.33871         0.90809
H          1.92314        -1.21937         1.34246
O          0.33539         3.19559        -3.28351
H         -0.17839         4.00214        -3.53598
O          0.38546        -0.72237         0.41221
O         -2.12664         2.96835         0.56379
H         -2.86667         2.49741         1.03628
O          4.28269        -5.84326        -2.11594
O          3.00487        -3.06344        -2.31891
O         -5.94651        -5.91179        -1.28709
O          0.51880         6.05932        -2.58749
H          0.08542         6.90523        -2.85627
O         -0.11179        -6.87978        -1.38417
O         -3.48825        -8.07749         3.34616
H         -2.55974        -7.73797         3.43123
O          4.56065         1.08882        -2.62197
O          3.94502         4.20285        -2.65336
H          3.03164         4.33739        -2.98627
O         -7.96921        -2.91524        -1.87342
H         -7.24535        -2.50060        -2.40184
O          9.26758         5.29663        -0.29947
H          8.56394         5.41013        -0.98084
O         -8.88856         1.26218         1.75710
O          6.62715         5.59852        -1.23051
H          6.00393         5.30338        -1.93269
O         -4.57361         1.97672         1.00434
O          6.79973         1.56197        -2.60562
O          6.46884        -0.99149        -3.03269
H          6.43545        -0.10613        -3.46942
O          0.72323         7.86721         1.86612
O         -0.26206         8.16790        -1.51121
O         -2.78341        -1.72506        -2.93379
H         -2.16398        -2.42565        -3.23339
O          5.43631         6.82754         3.57058
H          4.54758         7.23283         3.70504
O          3.21251         7.86728         2.49243
O         -0.79767        -8.03196         3.03232
H         -0.47202        -8.71034         3.66360
O         -5.85490         8.02193        -1.45965
O          0.85125         3.85914         0.26306
O          5.18281        -2.01928         0.21201
O         -7.32082         3.23633        -1.92751
O         -1.65216         4.57876        -2.57079
O          4.55707        -6.91610         1.30222
H         11.61663        -1.72628         1.41007
H         11.54728         0.69979         1.89359
H         10.43144         2.88053         1.68495
H          9.29668         4.95170         1.74564
H          7.89732         6.55490         2.64218
H          6.94037         8.86234         1.78521
H          5.18804        10.45412         1.53165
H          2.58097        10.63909         0.68241
H         -0.05942        10.86087         1.12004
H         -2.54229        10.91885         0.86025
H         -4.79092        10.98183         0.84582
H         -7.01181        10.13250         0.85050
H         -8.18263         7.54108         0.92093
H         -9.42584         5.67474         0.40802
H        -10.63943         3.66852         0.59278
H        -11.98019         1.40148         0.51454
H        -11.96725        -1.05797         0.68524
H        -10.65201        -3.19175         1.13725
H         -9.42681        -5.25267         1.32143
H         -8.22336        -7.38213         1.53592
H         -6.97436        -9.51918         1.84371
H         -4.80161       -10.52811         2.44166
H         -2.28837       -10.48406         2.37906
H          0.18953       -10.60252         1.91311
H          2.57894       -10.84967         1.21067
H          5.02649       -10.93197         0.82377
H          7.12513        -9.86800         0.15443
H          8.39733        -7.82408        -0.55318
H          9.66966        -5.76609        -0.67862
H         10.57211        -3.70543         0.48350
