         344
 CSIRO Nanostructure Databank - Neutral Graphene Oxide Data Set
C          1.23055         3.49108        -0.53913
C          0.02101         4.22720        -0.58724
C          1.08231         6.22006         0.40421
C         -0.04211         5.55904        -0.24952
C          1.10428         7.74065         0.65364
C         -0.13961         8.47691         0.21913
C          1.10980        10.56752        -0.26022
C         -0.14152         9.78246        -0.07966
C          1.10548        12.03640        -0.03670
C         -0.05067        12.77211        -0.02492
C          1.14621        14.91794         0.16496
C         -0.04318        14.18975         0.11011
C          1.16909        16.37260         0.09501
C         -0.03054        17.11490         0.12006
C          1.13398        19.24845        -0.11634
C         -0.03429        18.51260         0.07728
C          1.12578        20.67184        -0.25669
C         -0.03861        21.41523        -0.35396
C          1.10003        23.57583        -0.26213
C         -0.04413        22.84578        -0.42588
C          1.10679        25.06187         0.05302
C         -0.02667        25.85371        -0.56015
C          1.16048        27.93381         0.07983
C          0.01762        27.19251        -0.58059
C          1.26135        29.38567        -0.30710
C          3.69284         3.47488        -0.45437
C          2.44406         4.11519        -0.24678
C          3.68331         6.26024         0.30995
C          2.43622         5.47456         0.32615
C          3.60401         7.69062         0.29762
C          2.39750         8.38049         0.17619
C          3.67980        10.58666        -0.01526
C          2.42198         9.82261        -0.13738
C          3.63241        12.06924        -0.32154
C          2.40808        12.70669         0.35901
C          3.60504        14.90514         0.22068
C          2.39817        14.21556         0.19228
C          3.62986        16.35748         0.20220
C          2.41526        17.06034         0.04754
C          3.64317        19.28794         0.13232
C          2.43764        18.51885        -0.36077
C          3.65429        20.64971         0.07328
C          2.44533        21.38735        -0.48136
C          3.64156        23.54966         0.24863
C          2.35472        22.82145         0.01320
C          3.67644        25.01121         0.08018
C          2.43000        25.71525        -0.40128
C          3.66770        27.86448        -0.11096
C          2.46558        27.19837        -0.13844
C          3.70598        29.32171        -0.13215
C          2.44719        30.02540        -0.34117
C          6.14390         3.47648        -0.48968
C          4.90284         4.15697        -0.32244
C          6.11934         6.28784        -0.10615
C          4.91160         5.59060        -0.01003
C          6.17014         7.69888         0.24914
C          4.86180         8.46087         0.41125
C          6.13481        10.62103         0.15537
C          4.87584         9.92569         0.17804
C          6.15369        12.06481         0.13350
C          4.89221        12.80314         0.09291
C          6.13770        14.89426         0.59726
C          4.85692        14.16203         0.27215
C          6.09609        16.39526         0.38300
C          4.86956        17.06588         0.33784
C          6.14227        19.26226         0.41795
C          4.83779        18.53995         0.67437
C          6.14954        20.66653         0.35575
C          4.89648        21.40046         0.27014
C          6.14446        23.53447         0.21901
C          4.91076        22.78866         0.22769
C          6.12205        24.92529         0.15310
C          4.88738        25.67307         0.07483
C          6.10830        27.83042         0.14037
C          4.92571        27.13777        -0.02064
C          6.15368        29.27737         0.08858
C          4.90693        29.98687        -0.05903
C          8.59477         3.49116        -0.62377
C          7.35479         4.16268        -0.58101
C          8.67095         6.37563        -0.69531
C          7.28232         5.66011        -0.84541
C          8.60483         7.79777        -0.17846
C          7.39803         8.47289         0.00993
C          8.61477        10.58117         0.13324
C          7.37192         9.89309         0.12059
C          8.64175        12.05089        -0.16037
C          7.35097        12.76190         0.11852
C          8.59436        14.96606         0.28571
C          7.32616        14.25480        -0.11343
C          8.58722        16.36292         0.37734
C          7.33496        17.09562         0.39205
C          8.60966        19.22982         0.45012
C          7.36622        18.53187         0.41214
C          8.62802        20.66027         0.44553
C          7.38963        21.38107         0.35602
C          8.62291        23.51117         0.36872
C          7.40371        22.80719         0.28899
C          8.64079        24.94531         0.28145
C          7.39084        25.69322        -0.11419
C          8.62669        27.82804         0.26342
C          7.35115        27.07536         0.53981
C          8.63228        29.24883         0.13541
C          7.37016        29.94914         0.13013
C         11.04663         3.50774        -0.54246
C          9.81754         4.16141        -0.40940
C         11.03833         6.33798         0.10256
C          9.71248         5.58590         0.11383
C         11.06780         7.71806         0.14806
C          9.82080         8.47212         0.08578
C         11.05954        10.57232         0.75737
C          9.81359         9.87188         0.27410
C         11.05418        12.06594         0.52230
C          9.86594        12.73834         0.36666
C         11.09633        14.87715         0.26695
C          9.81853        14.20461         0.69837
C         11.09607        16.37156         0.25361
C          9.82569        17.09444         0.43981
C         11.11117        19.19492         0.54981
C          9.85211        18.49877         0.49171
C         11.11107        20.64170         0.60944
C          9.86163        21.35950         0.53267
C         11.05795        23.51289         0.73966
C          9.87547        22.80390         0.54790
C         11.07685        25.00832         0.88101
C          9.80465        25.66172         0.43063
C         11.05298        27.75009        -0.04991
C          9.82400        27.10118         0.23834
C         11.07848        29.18645        -0.21825
C          9.85615        29.91202        -0.03975
C         13.51601         3.51665        -0.52596
C         12.29435         4.14901        -0.30833
C         13.59719         6.32255         0.11825
C         12.28032         5.54969         0.17388
C         13.54653         7.78771         0.08528
C         12.32185         8.46543         0.20434
C         13.55834        10.57180         0.47780
C         12.34141         9.87777         0.37346
C         13.56766        11.99865         0.98175
C         12.30617        12.77218         0.68289
C         13.58260        14.89198         0.60341
C         12.35520        14.15331         0.54482
C         13.57926        16.32622         0.56570
C         12.37117        17.06090         0.48322
C         13.60287        19.16597         0.66812
C         12.34247        18.47401         0.59418
C         13.57671        20.62283         0.90223
C         12.30743        21.34203         0.76939
C         13.58250        23.52297         0.61286
C         12.33179        22.80797         1.10844
C         13.53183        24.90080         0.26169
C         12.29420        25.63660         0.22124
C         13.44249        27.61153        -0.78153
C         12.24330        26.96805        -0.19240
C         13.39484        29.07675        -1.21885
C         12.25681        29.83499        -0.59503
C         15.97457         3.58237        -0.83630
C         14.76252         4.23042        -0.60238
C         15.96659         6.41433        -0.53961
C         14.78926         5.66137        -0.41357
C         15.98843         7.76341        -0.12808
C         14.77806         8.49176         0.06641
C         16.05766        10.61144         0.35406
C         14.79132         9.90018         0.30620
C         16.06635        12.04565         0.45615
C         14.82488        12.76721         0.63458
C         16.11629        14.89801         0.84964
C         14.80890        14.16059         0.65086
C         16.06332        16.37628         0.55450
C         14.83723        17.04889         0.55512
C         16.07217        19.22403         0.17825
C         14.80440        18.48996         0.54929
C         16.12107        20.67512         0.56471
C         14.86253        21.39427         0.84091
C         16.04268        23.53464         0.35257
C         14.81365        22.84918         0.58008
C         15.99211        24.95405         0.28842
C         14.76082        25.59417         0.09112
C         16.01597        27.72209        -0.57922
C         14.75671        26.95461        -0.47961
C         15.95657        29.10662        -0.99069
C         14.72608        29.77447        -1.10160
C         18.46161         3.59838        -1.25944
C         17.13647         4.28913        -1.46001
C         18.48044         6.41091        -0.66935
C         17.19167         5.86707        -1.26269
C         18.52215         7.74648        -0.23249
C         17.27687         8.40769         0.29622
C         18.51450        10.59643         0.21975
C         17.26953         9.91290         0.21561
C         18.51940        12.03143         0.27019
C         17.29053        12.73363         0.33808
C         18.57556        14.92741         0.42461
C         17.27090        14.22991         0.11416
C         18.57132        16.34211         0.54583
C         17.32190        17.08199         0.51539
C         18.57773        19.20775         0.52213
C         17.34678        18.48035         0.47164
C         18.58059        20.63991         0.48450
C         17.30677        21.36660         0.49497
C         18.52563        23.39980        -0.07120
C         17.29836        22.80682         0.27991
C         18.65237        24.61281        -0.82531
C         17.15616        25.86187         0.53415
C         18.46106        27.67008        -0.79365
C         17.22684        27.09243        -0.32053
C         18.41887        29.04814        -1.20195
C         17.19961        29.76254        -1.20076
C         19.62229         4.25062        -1.05591
C         20.91049         6.33260        -0.56599
C         19.68283         5.68379        -0.79911
C         20.94877         7.69252        -0.27979
C         19.75505         8.42316        -0.08605
C         20.94433        10.60250         0.18557
C         19.75418         9.87253         0.14261
C         20.95097        12.00138         0.28122
C         19.76820        12.74269         0.31199
C         20.99141        14.92037         0.61640
C         19.77863        14.20246         0.44425
C         21.00282        16.29848         0.69578
C         19.80279        17.05097         0.64164
C         21.00961        19.24754         0.72055
C         19.81009        18.49976         0.64329
C         20.99770        20.63391         0.69742
C         19.78808        21.34829         0.58197
C         20.99216        23.62070         0.37501
C         19.72876        22.86436         0.68061
C         20.94591        24.89747        -0.08397
C         19.74495        25.47720        -0.64694
C         20.82302        27.58943        -1.39681
C         19.67328        26.91516        -0.96273
C         20.80214        28.96522        -1.69439
C         19.62630        29.68573        -1.61488
O          1.80017        10.13618        -1.49635
O         14.30552        21.00674         2.17820
O         17.88599        25.71381         1.51257
O          5.61914         8.03069         1.58164
O         14.09469        26.82435        -1.83298
O         11.07192        15.55268        -1.01306
O          1.63259         5.51834         1.56476
O         13.07493         5.75155         1.38301
O         17.11675         6.44103        -2.55038
O          2.77996        23.06100         1.40129
O         16.73705         4.07537        -2.84356
H         16.78994         5.01301        -3.23846
O          9.24730         5.52601         1.48054
H          9.96042         5.14337         2.03296
O          8.78020        12.14093        -1.65413
H          8.09942        11.54725        -2.04021
O          3.52252        12.22244        -1.75820
H          2.86014        11.55515        -2.06813
O          4.67506        18.55200         2.14950
H          4.68888        19.49116         2.43531
O          1.14083         7.94323         2.09753
H          1.55078         7.12714         2.47905
O         12.42741        22.88404         2.59080
H         13.17888        22.28011         2.83705
O         16.00303        19.25946        -1.31178
H         16.04370        18.32925        -1.62437
O          2.57054        12.43871         1.78834
H          1.81940        12.85642         2.25988
O          9.25138         6.49442        -2.02926
H          9.64724         5.62613        -2.26153
O          7.27554        26.85366         1.97688
H          7.30189        27.72633         2.42162
O          6.88532         5.77023        -2.24791
H          7.63419         6.21678        -2.71678
O          1.01550        25.16093         1.50218
H          1.65027        24.49297         1.87011
O          2.63941        21.45706        -1.92192
H          2.68268        20.52310        -2.24136
O         13.58166        11.83768         2.46418
H         13.66204        12.73525         2.85381
O         17.68956        24.87799        -1.75657
H         17.90776        25.70413        -2.23526
O         11.02120        10.45449         2.22272
H         11.85782        10.85935         2.56333
O          2.43928        25.54746        -1.85973
H          3.23382        26.00271        -2.21109
O         16.41435        14.78334         2.27690
H         15.78310        15.35153         2.76587
O         17.32525         8.12252         1.75548
H         16.57790         8.60177         2.17462
O         19.43432        23.16023         2.09293
H         19.07732        24.07923         2.13118
O         11.20890        25.31287         2.31627
H         11.70617        24.56243         2.72927
O         13.09851        29.07407        -2.66244
H         13.51573        28.25636        -3.02281
O          0.91345        27.91868         1.52245
H          0.86986        26.96498         1.79100
O          2.59146        18.51834        -1.84113
H          1.88473        17.94228        -2.20518
O         17.01812        14.42007        -1.31115
H         17.72424        13.95546        -1.80743
O          7.43889        25.91832        -1.55507
H          7.50520        25.04552        -1.99587
O          6.40075        14.71827         2.02425
H          5.66463        15.13629         2.51963
O          7.17086        14.45807        -1.54601
H          7.87100        13.91633        -1.98305
O          9.82508        14.29400         2.17350
H          8.94319        14.00136         2.49299
H          1.23445         2.44683        -0.88292
H         -0.87068         3.73942        -1.00675
H         -0.93748         6.13978        -0.51008
H         -1.10406         7.96240         0.34399
H         -1.09884        10.28991        -0.27226
H         -1.02143        12.28596        -0.20052
H         -1.01175        14.70389         0.06971
H         -0.99335        16.60070         0.23305
H         -0.99559        19.03191         0.19440
H         -1.01605        20.91279        -0.33369
H         -1.01655        23.34757        -0.53135
H         -0.87648        25.32128        -1.01295
H         -0.80716        27.77197        -1.02425
H          0.32530        29.94273        -0.46562
H          3.70029         2.42234        -0.77548
H          2.49295        31.10533        -0.55046
H          6.14447         2.37534        -0.48045
H          4.93069        31.08549        -0.11888
H          8.60427         2.39784        -0.76106
H          7.38089        31.04747         0.06635
H         11.05306         2.46427        -0.89392
H          9.86814        31.00585        -0.15762
H         13.51971         2.45130        -0.80157
H         12.26250        30.93224        -0.68315
H         16.01438         2.48205        -0.77137
H         14.74058        30.84254        -1.36879
H         18.46761         2.50572        -1.40006
H         17.20480        30.82806        -1.47391
H         20.56688         3.68614        -1.00964
H         21.84815         5.76452        -0.65429
H         21.92596         8.18187        -0.16955
H         21.91241        10.08645         0.13963
H         21.92463        12.50773         0.31862
H         21.94843        14.38478         0.66769
H         21.96945        16.80957         0.79659
H         21.97560        18.73365         0.81335
H         21.94921        21.17588         0.78509
H         21.94767        23.21211         0.73245
H         21.86608        25.50027        -0.10558
H         21.75855        27.03079        -1.53726
H         21.72750        29.45665        -2.02587
H         19.60155        30.74874        -1.89322
