         621
 CSIRO Nanostructure Databank - Neutral Graphene Oxide Data Set
C          6.20513        31.47424         1.92387
C          6.18984        32.80282         2.07085
C          8.57058        27.22284         0.92440
C          8.49233        28.65732         0.86787
C          7.41185        29.34496         1.34590
C          8.44990        31.58219         0.84111
C          7.16596        30.78928         0.98219
C          8.42863        32.97460         0.99223
C          7.11596        33.68322         1.26560
C          8.45705        35.79851         1.64979
C          7.29697        35.06365         1.83893
C          8.52191        37.19196         1.97816
C         10.90422        22.99799         0.21854
C         10.91542        24.37783        -0.01229
C          9.79923        25.11417         0.47725
C         10.97130        27.27249         0.34735
C          9.70396        26.52362         0.51141
C         10.92220        28.72664         0.24198
C          9.56609        29.39527         0.08830
C         10.78416        31.60732         0.14638
C          9.62977        30.89002         0.40437
C         10.85588        33.03960         0.49855
C          9.60612        33.75270         0.83169
C         10.80881        35.92848         0.86440
C          9.63770        35.14755         1.08243
C         10.87032        37.27048         1.28012
C          9.69428        37.94100         1.80066
C         10.91927        40.10046         1.86821
C          9.75234        39.34286         2.07152
C         10.96965        41.51176         2.14109
C         13.41527        18.78840        -0.79640
C         13.25662        20.22954        -1.15177
C         12.31169        20.88517        -0.15330
C         13.42157        23.16920        -1.41134
C         11.75560        22.08046        -0.48362
C         13.37901        24.49828        -1.02533
C         11.99934        25.15958        -0.80891
C         13.43858        27.31243        -0.44292
C         12.19160        26.51603        -0.13434
C         13.41652        28.80029        -0.38675
C         12.06954        29.44713        -0.30214
C         13.18593        31.75711        -0.78290
C         11.96500        30.95026        -0.43659
C         13.15906        33.23690        -0.69361
C         12.03604        33.85954         0.08432
C         13.29208        35.93072         0.38229
C         11.92395        35.37292        -0.00019
C         13.35563        37.30704         0.92937
C         12.08786        38.03102         1.18652
C         13.36654        40.13430         1.25053
C         12.10480        39.39158         1.43460
C         13.37407        41.59767         1.57923
C         12.13617        42.28585         2.04505
C         13.36677        44.47602         2.21003
C         12.18219        43.69130         2.27453
C         13.41703        45.87498         2.38531
C         15.81944        14.52743        -0.90498
C         15.80865        15.95441        -0.92554
C         14.62471        16.68709        -0.77140
C         15.83686        18.81162        -1.24970
C         14.61175        18.10139        -0.92575
C         15.81690        20.26122        -1.41061
C         14.59524        20.96693        -1.32836
C         15.85591        23.11251        -1.49453
C         14.62339        22.38930        -1.43282
C         15.81318        24.55098        -1.46598
C         14.60980        25.21039        -1.14676
C         15.77641        27.47954        -1.57610
C         14.55025        26.68110        -1.20783
C         15.83779        28.94935        -1.34014
C         14.62974        29.60780        -0.78811
C         15.70551        31.87925        -1.23963
C         14.52765        31.09845        -0.80494
C         15.70856        33.27563        -1.09215
C         14.44596        34.00101        -0.83508
C         15.82265        36.04602        -0.10964
C         14.50353        35.40363        -0.33104
C         15.85374        37.33494         0.40599
C         14.63166        38.03726         0.80129
C         15.91931        40.07626         1.15464
C         14.63260        39.36933         1.09957
C         15.94053        41.51624         1.53092
C         14.67481        42.25488         1.89346
C         15.88118        44.50633         1.75330
C         14.65429        43.73460         2.09460
C         15.90342        45.95859         2.05570
C         14.62292        46.66012         2.36132
C         15.88751        48.81687         2.10497
C         14.66347        48.05070         2.28679
C         15.89707        50.15371         1.79456
C         18.23201        10.36337        -0.43279
C         18.21272        11.60691        -0.97586
C         16.92850        12.31719        -1.33632
C         18.21645        14.52458        -1.28350
C         16.98821        13.81878        -1.13003
C         18.24094        15.92964        -1.28961
C         17.02992        16.66229        -1.17230
C         18.26872        18.73704        -1.79070
C         17.01845        18.07960        -1.35786
C         18.29439        20.24197        -1.92252
C         17.04298        20.97879        -1.62573
C         18.33431        23.08762        -1.90351
C         17.07996        22.38468        -1.64370
C         18.22774        24.55997        -2.11284
C         17.01382        25.31707        -1.74007
C         18.25612        27.48726        -1.75643
C         17.02954        26.71812        -1.75673
C         18.24649        28.95581        -1.76097
C         16.96520        29.69177        -1.67476
C         17.90564        32.03376        -2.07060
C         16.87911        31.17612        -1.63736
C         18.10054        33.37063        -1.59912
C         16.92335        34.02542        -1.12378
C         18.26374        36.00943        -0.62970
C         17.00999        35.37724        -0.63746
C         18.38639        37.31167         0.13231
C         17.09866        38.08391         0.32642
C         18.27116        40.30617         0.15123
C         17.11385        39.42827         0.56771
C         18.42590        41.57570         0.95800
C         17.15262        42.30099         1.17297
C         18.45656        44.39139         1.77481
C         17.14910        43.76088         1.44156
C         18.49188        45.83620         2.18540
C         17.20850        46.62783         2.35058
C         18.43807        48.76874         1.75480
C         17.20008        48.12343         2.32147
C         18.38520        50.19401         1.35420
C         17.17443        50.97139         1.86928
C         18.31802        53.04392         1.05969
C         17.14684        52.34106         1.23941
C         18.31339        54.37666         0.54988
C         20.55854         6.36849         1.30118
C         20.62105         7.66433         0.72179
C         19.42985         8.35886         0.39569
C         20.72137        10.18598        -0.56224
C         19.46463         9.62604        -0.19042
C         20.75910        11.50336        -1.22970
C         19.46705        12.26639        -1.40279
C         20.74152        14.52054        -1.30158
C         19.47355        13.77690        -1.52711
C         20.73340        15.89151        -1.25459
C         19.50214        16.64952        -1.42409
C         20.83065        18.71899        -1.94535
C         19.53497        18.01133        -1.60207
C         20.78877        20.23890        -1.83258
C         19.61251        20.95203        -1.86991
C         20.83907        23.12530        -2.22240
C         19.54984        22.41098        -1.99312
C         20.84367        24.63569        -2.13379
C         19.52988        25.37366        -2.17731
C         20.69498        27.40611        -1.31042
C         19.46702        26.78073        -1.78698
C         20.66354        28.91027        -1.14049
C         19.49435        29.60416        -1.68978
C         20.74211        31.79653        -1.66741
C         19.74396        30.96331        -2.09753
C         20.66173        33.27937        -1.88311
C         19.38716        34.01805        -1.56501
C         20.74089        36.06902        -1.00561
C         19.46088        35.35525        -1.08735
C         20.73958        37.49474        -0.67802
C         19.55084        38.16661        -0.30018
C         20.74285        40.30835        -0.17480
C         19.55665        39.54880        -0.05265
C         20.76865        41.72536         0.19349
C         19.59693        42.35484         0.80012
C         20.80342        44.55785         0.94060
C         19.64114        43.71024         1.21472
C         21.02526        45.85212         1.67300
C         19.78893        46.60695         2.09511
C         21.00546        48.81605         1.45980
C         19.76904        48.09695         1.90552
C         20.96397        50.24233         1.29238
C         19.65444        50.94493         0.95107
C         20.87857        53.11009         0.93127
C         19.64223        52.39336         1.44086
C         20.79492        54.49527         0.55259
C         19.48469        55.11603         0.33068
C         20.56600        57.22681        -0.38245
C         19.41248        56.44345        -0.15626
C         20.52120        58.48033        -1.00352
C         22.88871         3.73192         2.62615
C         21.69008         4.41978         2.31637
C         22.96415         6.49378         1.83143
C         21.70503         5.72710         1.80127
C         23.09808         7.68356         0.97393
C         21.89021         8.28710         0.45877
C         23.23375        10.13366        -0.57624
C         21.92116         9.53400        -0.21674
C         23.30792        11.60868        -0.72179
C         22.05991        12.27968        -1.15470
C         23.13923        14.45264        -0.34842
C         21.92759        13.73866        -0.86622
C         23.12364        15.94868        -0.36028
C         21.91460        16.68895        -0.83982
C         23.17854        18.82609        -0.91535
C         22.02303        18.12222        -1.20602
C         23.25172        20.26061        -1.08007
C         22.16912        20.87241        -1.97880
C         23.32924        23.16832        -1.42620
C         22.15308        22.40253        -1.97926
C         23.23133        24.63285        -1.24149
C         22.04427        25.33615        -1.59589
C         23.26874        27.48979        -1.46995
C         21.98400        26.71505        -1.39050
C         23.21215        28.94523        -1.09386
C         21.95050        29.66115        -0.97417
C         23.25923        31.83473        -1.37008
C         21.96706        31.17895        -1.10631
C         23.26154        33.27025        -1.53806
C         21.97780        34.01084        -1.70927
C         23.23281        36.09361        -1.21863
C         21.95887        35.42862        -1.29244
C         23.22107        37.51874        -0.81820
C         21.93734        38.24808        -0.75246
C         23.17705        40.45186        -0.64803
C         21.93689        39.64015        -0.54329
C         23.00018        41.91719        -0.79788
C         21.90167        42.48060        -0.05395
C         23.29539        44.58135         0.30523
C         21.95629        43.92392         0.24918
C         23.38912        46.01861         0.59576
C         22.27515        46.64331         1.37536
C         23.52290        48.84767         1.29787
C         22.20391        48.12375         1.38174
C         23.41117        50.32612         1.01446
C         22.15777        50.98641         1.12283
C         23.34799        53.16091         0.80599
C         22.10421        52.43489         0.94246
C         23.26695        54.63283         0.67479
C         21.95236        55.23147         0.36934
C         23.12062        57.36217        -0.47924
C         21.87232        56.66137         0.01273
C         22.97835        58.57530        -1.29313
C         21.69786        59.16215        -1.46077
C         22.75862        60.98305        -2.69431
C         21.61170        60.38611        -2.17655
C         24.12915         4.31584         2.50493
C         25.53091         6.34483         1.82127
C         24.26238         5.74590         2.23490
C         25.57463         7.60639         1.25009
C         24.35736         8.23345         0.75774
C         25.78920        10.16514        -0.13174
C         24.48996         9.41096        -0.11790
C         25.78862        11.64516        -0.42751
C         24.47516        12.33593        -0.51244
C         25.57579        14.50334         0.07328
C         24.45074        13.76474        -0.33171
C         25.49979        15.95767         0.18378
C         24.41053        16.64962        -0.26164
C         25.55774        18.85481         0.03300
C         24.49487        18.08666        -0.70950
C         25.52286        20.30347        -0.02562
C         24.37398        20.99543        -0.63099
C         25.44073        23.20148        -0.13861
C         24.41103        22.43799        -0.72364
C         25.49608        24.62907        -0.21962
C         24.37043        25.34942        -0.74835
C         25.57762        27.50419        -0.48897
C         24.41319        26.76244        -0.82496
C         25.62451        28.92245        -0.71465
C         24.40749        29.65326        -1.04340
C         25.73336        31.75226        -1.46122
C         24.42745        31.08336        -1.26969
C         25.73255        33.24802        -1.84845
C         24.45542        33.98574        -1.49865
C         25.75637        36.15604        -1.48111
C         24.44893        35.41751        -1.41938
C         25.75981        37.62435        -1.19739
C         24.49697        38.28991        -0.77042
C         25.80251        40.44333        -1.23601
C         24.51943        39.80052        -0.77585
C         25.91610        41.67171        -1.81657
C         23.94345        42.74462        -1.34928
C         25.31811        44.93055        -1.19277
C         24.27080        44.03803        -0.72384
C         25.61072        46.12094        -0.56663
C         24.53190        46.70210         0.24653
C         25.76890        48.91197         0.02326
C         24.50912        48.17495         0.35509
C         25.81692        50.35179         0.38750
C         24.59481        51.03732         0.69592
C         25.84405        53.20272         0.51374
C         24.56224        52.48360         0.69544
C         25.83157        54.70080         0.25007
C         24.51991        55.40629         0.29206
C         25.58051        57.28029        -1.08104
C         24.32507        56.48016        -0.77762
C         25.43279        58.53708        -1.66458
C         24.14772        59.16585        -1.84258
C         24.01564        60.39005        -2.53761
C         26.83275         8.30514         1.12480
C         28.11897        10.36760         0.75405
C         26.94654         9.57485         0.58379
C         28.16590        11.73962         0.49071
C         27.06408        12.47133        -0.25823
C         27.99595        14.60835         0.60206
C         26.85216        13.88023         0.24638
C         27.94182        16.02598         0.84030
C         26.58393        16.69151         0.92717
C         27.70369        18.92561         1.24119
C         26.58760        18.18241         0.64995
C         27.77846        20.37068         1.02204
C         26.61036        21.02177         0.47771
C         27.78958        23.26044         0.86116
C         26.52418        22.49187         0.55852
C         27.83782        24.69386         0.54799
C         26.67989        25.37100         0.16348
C         27.88880        27.57173         0.32062
C         26.72474        26.81972         0.01337
C         27.92877        28.95854         0.08771
C         26.80204        29.63408        -0.42916
C         27.96094        31.92460        -0.18361
C         26.93011        31.04748        -0.87727
C         28.23833        33.22587        -0.90448
C         27.05123        33.96040        -1.49347
C         28.21827        36.07286        -0.96004
C         27.05493        35.42637        -1.32679
C         28.23214        37.51691        -0.61561
C         26.98056        38.29821        -0.64414
C         28.34231        40.36826        -1.19311
C         27.04251        39.83077        -0.60676
C         28.35839        41.73009        -1.58840
C         27.16076        42.44223        -1.82902
C         28.24953        44.67393        -1.38228
C         27.17515        43.86122        -1.85913
C         28.17500        46.04213        -0.98169
C         26.92675        46.78472        -0.69811
C         28.26439        48.80676        -0.13022
C         26.98077        48.12299        -0.29970
C         28.28704        50.32419         0.05162
C         27.01070        51.06337         0.13097
C         28.22909        53.17042        -0.30691
C         27.03933        52.46212         0.09569
C         28.14757        54.56212        -0.61759
C         26.96132        55.30188        -0.50074
C         26.82620        56.60876        -1.02222
C         29.30130        12.50698         0.81086
C         30.43405        14.67589         1.01069
C         29.26946        13.92346         0.77313
C         30.38881        16.07927         1.14693
C         29.09717        16.73060         1.12870
C         30.27661        18.94445         1.49706
C         29.04021        18.16488         1.47538
C         30.21751        20.33626         1.52570
C         28.98378        21.03717         1.29465
C         30.35201        23.20019         0.91135
C         29.05697        22.47187         0.91286
C         30.37765        24.69041         0.74874
C         29.08102        25.41859         0.88070
C         30.43020        27.60855         0.69356
C         29.11450        26.91168         0.82884
C         30.45000        28.95228         0.44314
C         29.17665        29.70280         0.39755
C         30.55026        31.86631         0.14060
C         29.23052        31.18104         0.23319
C         30.56872        33.28535         0.00945
C         29.40840        33.99050        -0.42477
C         30.64115        36.09940        -0.25740
C         29.44203        35.37447        -0.59897
C         30.69247        37.53882        -0.43164
C         29.51712        38.24719        -0.66932
C         30.84091        40.22934        -1.34903
C         29.52515        39.61998        -1.05458
C         30.88627        41.73560        -1.57775
C         29.60632        42.48645        -1.72283
C         30.78513        44.60265        -0.90386
C         29.56643        43.98459        -1.51326
C         30.72177        46.07187        -0.80884
C         29.46394        46.74038        -0.80462
C         30.71383        48.87766        -0.49992
C         29.49369        48.13237        -0.53540
C         30.69111        50.31416        -0.48567
C         29.51326        51.04884        -0.33837
C         29.42887        52.45159        -0.52147
C         31.56363        16.84039         1.35071
C         32.76158        18.96711         1.62261
C         31.55034        18.24431         1.48809
C         32.78949        20.36934         1.74337
C         31.48830        21.08356         1.76295
C         32.84707        23.27561         1.47071
C         31.54811        22.55844         1.52216
C         32.86080        24.64317         1.35283
C         31.66465        25.41492         0.94136
C         32.88085        27.57777         0.98810
C         31.67266        26.89766         0.94633
C         32.95510        28.97911         0.67847
C         31.73810        29.65819         0.10546
C         32.97683        31.84475         0.48728
C         31.73629        31.15520         0.30686
C         32.96319        33.25199         0.54941
C         31.78392        33.99221         0.24216
C         32.98069        36.20616         0.65084
C         31.79147        35.41638         0.14972
C         33.12873        37.57065         0.02504
C         31.96590        38.22938        -0.38875
C         33.28464        40.26318        -0.83584
C         32.05520        39.57263        -0.84008
C         33.26866        41.64903        -1.25227
C         32.13674        42.43963        -1.29489
C         33.33385        44.66210        -0.48582
C         32.10560        43.86074        -0.83351
C         33.17481        46.04600        -0.38478
C         31.94565        46.76503        -0.58888
C         31.93420        48.17430        -0.52951
C         33.99099        21.10061         1.79175
C         35.29620        23.21594         1.74984
C         34.06843        22.52557         1.72142
C         35.37022        24.63922         1.69076
C         34.09200        25.37733         1.67761
C         35.40598        27.49995         1.22229
C         34.10659        26.89079         1.47404
C         35.42266        28.86277         0.69899
C         34.16823        29.65180         0.65741
C         35.46598        31.75566         0.65831
C         34.23139        31.09428         0.57623
C         35.49773        33.20727         0.92778
C         34.18696        33.98860         0.90755
C         35.48119        36.09516         0.69521
C         34.26634        35.43077         0.66388
C         35.54038        37.53157         0.49677
C         34.37419        38.26263         0.09082
C         35.64759        40.37959         0.19235
C         34.45927        39.65830        -0.24856
C         35.69494        41.81282         0.45204
C         34.94818        42.74516        -0.25719
C         34.53956        44.07400         0.01804
C         36.56001        25.37263         1.69756
C         37.85174        27.50783         1.46680
C         36.60067        26.79088         1.45715
C         37.93417        28.87746         1.23383
C         36.75588        29.59632         0.71262
C         37.93247        31.75094         0.89763
C         36.73078        31.07029         0.74223
C         38.01944        33.21543         0.53143
C         36.73760        33.96766         0.77974
C         37.98453        36.08263         0.91802
C         36.72906        35.34989         0.80143
C         37.97535        37.46504         0.90829
C         36.77030        38.21293         0.65271
C         36.76127        39.62828         0.61299
C         39.11544        29.65394         1.44592
C         40.34792        31.79702         1.46608
C         39.13713        31.03386         1.23604
C         40.37917        33.16213         1.42624
C         39.21292        33.94572         1.10120
C         39.18944        35.31724         1.17428
O         18.15678        19.38778        -3.11204
O         12.19162        22.60160        -1.73107
O         14.71493        27.17776        -2.57896
O         28.43503        49.44096         1.20364
O         19.97785        47.49862         3.22501
O         22.68792        57.53191         0.89060
O         33.93412        26.30204         2.81164
O         13.83933        28.01554         0.77075
O         28.96364        26.21397         2.11783
O         29.71330        43.42204        -2.85541
O         22.17490        16.51153         0.61728
O         18.10644        49.15329         0.36437
O         31.17766        43.92542         0.34642
O         20.43012        28.05447         0.01517
O         21.00358        23.94699        -3.41678
O         24.00976        55.51494         1.62431
O         29.04970        30.60373         1.58604
O         14.80616        42.81567         3.23552
O         18.55965        44.76761         3.19632
O         24.78251        42.28569        -2.37021
O         11.94384        26.58879         1.28429
O         31.00279        40.78422        -2.69513
O         29.86356        22.58367        -0.33009
O         17.25042        47.41320         3.58359
O         12.85442        32.57507        -1.95923
O         36.22132        29.03076        -0.53134
O         23.20711        22.85727        -2.89120
O         34.78201        33.54970         2.17578
O         24.39972        43.78949         0.76390
O         25.81739        37.18026        -2.57514
O         13.49304        36.10092         1.80264
O         27.42586        37.73251         0.63094
O         23.97772         9.25267        -1.48051
O         16.24656        40.52261         2.56000
O         11.68154        30.08934        -1.60986
O         21.60623        11.69381        -2.40784
O         21.38080        33.78071        -3.05475
O         31.32345        22.04188         2.87879
O         18.81788        31.52279        -2.98503
O         17.00288        43.27080         0.05462
O         34.48692        42.26242        -1.49718
O         24.65067        48.75407        -0.96741
O         24.08005        40.28576         0.53351
O         26.20402        54.18858         1.55590
O         14.24797        35.14869        -1.76234
O         26.82961        22.96314         1.92421
O         26.02876        44.51603        -2.32438
O         11.98552        33.35670         1.44666
O         24.03427        55.76297        -1.95716
O         22.16364        13.89227         0.59600
O         23.52168         6.62016         3.16750
O         26.04938        10.65699        -1.48348
O         22.08522        45.90359         2.65834
O         19.37886        12.91128        -2.72126
O         15.74297        45.48718         0.66377
O         21.87094        30.55352         0.20811
O         28.11257        18.47350         2.57588
O         13.28694        41.17760         0.17738
O         26.73351        31.08590        -2.32056
O         28.10770        33.36838        -2.34267
O         14.90345        30.42826         0.43865
O         23.98405        37.71201         0.46069
O         18.77698        25.04605        -3.37610
O         31.16549        25.02890        -0.43640
O         21.01640        44.74712        -0.53733
O         12.59694        20.21483        -2.45854
H         13.21084        19.79263        -3.09554
O          6.46201        33.90657        -0.02888
H          7.09501        34.38431        -0.60528
O         16.68308        12.07954        -2.73560
H         17.49529        12.36549        -3.21691
O         27.59447        12.67872        -1.60504
H         27.41769        11.84472        -2.10119
O          6.55610        30.74438        -0.34551
H          7.19405        30.28005        -0.93611
O         17.43124        51.15081         3.29840
H         16.67699        51.64194         3.68501
O         22.62561        20.47606        -3.32058
H         23.10656        21.25943        -3.68958
O         19.76700        52.37005         2.88075
H         19.75158        53.29201         3.21035
O         11.44865        25.42789        -2.11634
H         11.37063        24.56728        -2.58375
O         23.57390        27.51897        -2.93113
H         23.68796        26.58924        -3.22748
O         27.06331        40.25840         0.77497
H         27.17669        39.45189         1.33237
O         25.00884        17.96558        -2.09156
H         24.80968        18.80496        -2.56100
O         11.62626        35.75177        -1.35937
H         12.41639        35.52745        -1.91368
O         31.87403        29.50449        -1.36089
H         32.05231        28.55806        -1.54976
O         24.14039        48.70492         2.62013
H         23.44498        48.81697         3.30303
O         18.73699        36.87024         1.49577
H         18.79215        37.66576         2.06783
O         21.04960        18.36674        -3.34467
H         21.66540        19.04198        -3.72416
O          9.13673        29.29384        -1.31174
H          9.89524        29.62110        -1.85893
O         38.21532        33.21016        -0.93066
H         38.37634        34.13716        -1.20842
O         19.64781        51.03004        -0.49523
H         19.27554        50.18252        -0.83250
O         25.68251        33.25643        -3.29906
H         26.48443        32.77337        -3.60529
O         27.29398        32.36347         1.03396
H         27.60313        31.76930         1.76161
O         26.18429        16.55298         2.33286
H         26.79723        17.12873         2.85430
O         17.89602        40.76774        -1.20474
H         17.55349        41.68880        -1.14646
O         32.66679        36.46501         2.07270
H         33.48678        36.78566         2.50527
H          5.49979        30.84330         2.48697
H          5.47044        33.28627         2.74951
H          7.67791        26.66390         1.24567
H          6.60366        28.79542         1.85491
H          6.41000        35.55987         2.26304
H          7.61140        37.68755         2.34766
H         10.16746        22.59856         0.93329
H          8.92775        24.53427         0.82155
H          8.84674        39.84149         2.44934
H         10.03760        42.00022         2.46562
H         12.49649        18.22418        -0.57742
H         12.09830        20.38875         0.80246
H         11.23371        44.20236         2.50410
H         12.46503        46.41415         2.51424
H         14.87006        13.99015        -0.76384
H         13.67711        16.16519        -0.57439
H         13.71777        48.61436         2.32115
H         14.94316        50.68669         1.65240
H         17.28553         9.87935        -0.14694
H         16.06858        11.88342        -0.76734
H         16.18196        52.80944         0.98639
H         17.34231        54.84754         0.33042
H         19.58171         5.86822         1.38127
H         18.46005         7.89941         0.63661
H         18.42420        56.86584        -0.39448
H         19.54037        58.91540        -1.25003
H         22.82234         2.66714         2.89219
H         20.73508         3.87727         2.36638
H         22.67484        61.93333        -3.23997
H         20.62991        60.85926        -2.32101
H         25.04043         3.70507         2.58206
H         26.46704         5.80213         2.01984
H         26.32399        59.06892        -2.03573
H         24.90926        60.87686        -2.95356
H         27.71185         7.85798         1.61339
H         28.98994         9.89867         1.23907
H         29.02828        55.04237        -1.07133
H         27.71735        57.09773        -1.44876
H         30.21388        12.00433         1.16705
H         31.40115        14.15897         1.09769
H         31.63854        50.84637        -0.65666
H         30.32916        53.00093        -0.83426
H         32.53099        16.31718         1.37506
H         33.71084        18.41076         1.60855
H         34.05378        46.64463        -0.09963
H         32.88209        48.72473        -0.44146
H         34.93558        20.53675         1.84013
H         36.23029        22.64122         1.84279
H         36.30364        42.13877         1.30951
H         35.14874        44.69090         0.69758
H         37.51678        24.83836         1.79966
H         38.75789        26.96209         1.77083
H         38.91585        38.01768         1.05325
H         37.67505        40.16621         0.90660
H         40.03346        29.14509         1.77723
H         41.25909        31.24108         1.73260
H         41.30919        33.69465         1.67705
H         40.09543        35.86340         1.48064
