         671
 CSIRO Nanostructure Databank - Neutral Graphene Oxide Data Set
C          5.90866        31.61427         0.54080
C          5.88617        32.96263         0.40673
C          8.26268        27.28498        -0.42225
C          8.33116        28.70994        -0.03118
C          7.16393        29.39528         0.18046
C          8.24973        31.57146        -0.24631
C          7.20994        30.84423         0.61411
C          8.41690        33.04074         0.20051
C          7.08726        33.77004         0.23732
C          8.31762        35.91138         0.03365
C          7.08535        35.13552         0.19232
C          8.34291        37.30379         0.21521
C         10.80786        22.97697        -0.56315
C         10.71341        24.40136        -0.50288
C          9.42815        24.98634        -0.50047
C         11.08752        27.36267         0.11876
C          9.18161        26.32944        -0.05001
C         10.94156        28.82856         0.04920
C          9.60796        29.47936        -0.02604
C         10.77435        31.63318        -0.52496
C          9.58202        30.84639        -0.22085
C         10.74602        33.04567        -0.65183
C          9.43121        33.77741        -0.67909
C         10.73089        35.94260        -0.48570
C          9.51832        35.23564        -0.30809
C         10.72296        37.35411        -0.36511
C          9.54008        38.05121         0.02114
C         10.80186        40.20934         0.06466
C          9.59144        39.46576         0.18183
C         10.84070        41.61683         0.21816
C         13.41058        18.80344        -0.31826
C         13.35919        20.21764        -0.43737
C         12.11117        20.89379        -0.47157
C         13.26350        23.02859        -1.05938
C         12.02220        22.28145        -0.64626
C         13.17861        24.49482        -0.72366
C         11.98129        25.15483        -0.53165
C         13.12025        27.31096        -1.31440
C         12.02804        26.62623        -0.51813
C         13.29081        28.79612        -1.01685
C         12.13110        29.55437        -0.49077
C         13.16912        31.68608        -1.11765
C         11.99351        30.97770        -0.81158
C         13.17972        33.06995        -0.93177
C         11.95484        33.76533        -0.75281
C         13.18946        35.90209        -0.85116
C         11.97058        35.21787        -0.71321
C         13.20902        37.37894        -0.91445
C         11.93846        38.12145        -0.64445
C         13.25808        40.21829        -0.31468
C         12.02242        39.53408        -0.25105
C         13.28350        41.63576        -0.13728
C         12.04905        42.33221         0.07896
C         13.25270        44.46536         0.02576
C         12.06763        43.75740         0.13371
C         13.18005        45.98364        -0.01209
C         15.85373        14.62645         0.65184
C         15.71919        16.11385         0.79287
C         14.65327        16.63890        -0.16918
C         15.85193        18.85930        -0.12555
C         14.61490        18.14145        -0.17037
C         15.83263        20.25179        -0.33522
C         14.59852        20.93916        -0.49073
C         15.73209        23.11921        -0.51366
C         14.56611        22.36884        -0.64736
C         15.69590        24.56597        -0.62064
C         14.41934        25.24473        -0.85871
C         15.73018        27.20422        -1.57029
C         14.41816        26.57353        -1.16470
C         15.62523        28.71675        -1.82479
C         14.39888        29.46621        -1.43281
C         15.62481        31.74058        -1.75759
C         14.30842        30.95675        -1.79448
C         15.67335        33.09201        -1.22292
C         14.47653        33.77336        -0.64540
C         15.61903        35.97494        -1.29448
C         14.44001        35.24566        -0.98231
C         15.68396        37.36524        -1.12889
C         14.50215        38.03085        -0.48140
C         15.71400        40.21194        -0.67357
C         14.49224        39.53161        -0.57999
C         15.77278        41.64071        -0.40742
C         14.52114        42.34574        -0.16938
C         15.74831        44.49997         0.03924
C         14.48646        43.75655        -0.06890
C         15.68938        45.94889        -0.40932
C         14.51111        46.67573         0.20939
C         15.88485        48.65514         0.95759
C         14.58648        47.91874         0.71838
C         15.80404        50.18205         0.82304
C         18.38887        10.47223         0.99039
C         18.30548        11.88194         1.19831
C         17.14630        12.56101         0.86559
C         18.21626        14.77550         1.27406
C         17.03854        13.99310         0.91994
C         18.24282        16.15234         1.10602
C         17.04702        16.83702         0.63913
C         18.38607        18.86617         0.18552
C         17.08450        18.14438         0.20184
C         18.40123        20.33030        -0.16911
C         17.10989        21.01430        -0.64326
C         18.11156        23.18707         0.13217
C         17.00331        22.47121        -0.25835
C         18.02888        24.67355         0.14352
C         16.82421        25.31232        -0.39686
C         18.16733        27.42724        -0.86848
C         16.80980        26.82672        -0.52788
C         18.19407        28.73341        -1.58115
C         16.92074        29.46957        -1.91283
C         18.20581        31.69951        -1.55058
C         16.94172        30.98151        -1.85779
C         18.18775        33.11102        -1.55439
C         16.95072        33.86121        -1.14073
C         18.10179        36.02292        -1.78295
C         16.80891        35.23680        -1.85780
C         18.10184        37.38654        -1.68760
C         16.88770        38.11602        -1.30813
C         18.25841        40.16696        -0.86682
C         16.91305        39.49484        -1.03100
C         18.23560        41.68783        -0.84967
C         17.00631        42.31757        -0.43204
C         18.29281        44.50782        -0.39167
C         17.06085        43.75340        -0.12340
C         18.30501        45.95000         0.03336
C         17.01397        46.70238        -0.30784
C         18.35490        48.78273         0.34117
C         17.03952        48.12222         0.13506
C         18.36911        50.11174         0.81670
C         17.14481        50.79375         1.19100
C         18.45624        52.68417         2.06250
C         17.20564        52.02285         1.79806
C         18.50985        53.92738         2.69015
C         20.89567         6.34703         0.55770
C         20.83308         7.66861         1.05856
C         19.63016         8.38205         0.96580
C         20.67741        10.41708         2.01035
C         19.53808         9.75543         1.27712
C         20.64944        11.93118         1.95469
C         19.47851        12.59719         1.70413
C         20.57097        14.87257         2.26970
C         19.34946        14.06421         1.89136
C         20.62906        16.29198         1.85190
C         19.46505        16.91632         1.34046
C         20.69954        19.02140         1.16558
C         19.52924        18.27488         0.93723
C         20.84851        20.43720         0.62034
C         19.51885        21.15960         0.35421
C         20.47708        23.42311         0.98609
C         19.36745        22.51720         0.47072
C         20.57210        24.65828         0.06555
C         19.29611        25.48124         0.16403
C         20.62377        27.53821        -0.40512
C         19.34098        26.85568        -0.41368
C         20.59504        29.04188        -0.61174
C         19.45176        29.53203        -1.47468
C         20.64713        31.74133        -1.49245
C         19.42739        31.01668        -1.55766
C         20.61728        33.15295        -1.57998
C         19.39281        33.82899        -1.67843
C         20.64748        35.99381        -2.02162
C         19.34005        35.25529        -2.18352
C         20.62759        37.45066        -2.29517
C         19.32039        38.16097        -2.06657
C         20.68098        40.30717        -1.63257
C         19.27676        39.67702        -1.91519
C         20.57777        41.83569        -1.84524
C         19.38868        42.42719        -1.09650
C         20.70525        44.56830        -0.89685
C         19.44071        43.85865        -0.83259
C         20.74533        45.99242        -0.64190
C         19.52694        46.72717        -0.36660
C         20.77380        48.88632        -0.28678
C         19.53129        48.09775        -0.11082
C         20.82265        50.24218         0.36315
C         19.60903        50.80053         0.98712
C         20.93523        52.72758         1.78249
C         19.67331        52.05460         1.61091
C         20.96380        54.00522         2.41153
C         19.74649        54.60509         2.88670
C         21.02531        56.52567         3.75037
C         19.80733        55.85154         3.54417
C         21.07551        57.69591         4.56034
C         23.47481         3.90478        -0.60738
C         22.21074         4.45694        -0.28936
C         23.32467         6.19128         1.15323
C         22.10918         5.65465         0.42696
C         23.26250         7.68808         1.35027
C         22.07276         8.36417         1.42192
C         23.18711        10.50756         1.96960
C         22.03233         9.80577         1.71112
C         23.19977        11.94994         2.20990
C         21.88388        12.63709         2.38649
C         23.10953        14.91659         2.41680
C         21.85676        14.13973         2.51896
C         23.07887        16.28149         2.30846
C         21.83930        17.01426         2.00860
C         23.01821        19.22078         2.18919
C         21.82656        18.41670         1.77431
C         23.04854        20.76087         2.09408
C         21.66875        21.27965         1.60919
C         22.95873        23.38114         1.08101
C         21.78512        22.68280         1.10888
C         22.78636        24.82739         1.03805
C         21.78165        25.50590         0.38926
C         23.10408        27.61270        -0.12802
C         21.81354        26.91620         0.01534
C         23.11156        29.09327        -0.52013
C         21.87061        29.52453        -1.31464
C         23.12026        31.71067        -1.63372
C         21.90958        31.03808        -1.46299
C         23.14609        33.17224        -1.68925
C         21.88510        33.92993        -1.33273
C         23.11086        36.01890        -2.27940
C         21.82296        35.33842        -1.88961
C         23.09536        37.52313        -2.12577
C         21.91098        38.19518        -2.23717
C         23.13800        40.39476        -2.10139
C         21.84277        39.69361        -2.45411
C         23.12271        41.79532        -1.81042
C         21.90902        42.49714        -1.55964
C         23.18871        44.53267        -1.08124
C         21.92129        43.86590        -1.19997
C         23.20327        45.88487        -0.51291
C         21.96327        46.66322        -0.52831
C         23.32036        48.77517        -0.02000
C         22.07068        48.16484        -0.65314
C         23.31175        50.07162         0.53170
C         22.12641        50.80110         0.76806
C         23.41830        52.72285         1.61636
C         22.14979        52.06822         1.40319
C         23.40885        54.14677         1.98067
C         22.18822        54.72466         2.55511
C         23.51516        56.58835         3.51998
C         22.24694        55.96246         3.21864
C         23.53000        57.98176         4.10573
C         22.27184        58.34825         4.85849
C         23.56196        59.94601         6.19841
C         22.33044        59.40783         5.78363
C         24.64756         4.54258        -0.25731
C         25.80281         6.37384         0.88750
C         24.64354         5.73491         0.54899
C         25.77672         7.57694         1.80033
C         24.55640         8.45264         1.40741
C         25.73450        10.49148         2.26824
C         24.43668         9.69267         2.28579
C         25.68596        11.98216         2.36376
C         24.36326        12.67322         2.31567
C         25.57045        14.85390         1.92942
C         24.41422        14.16650         2.65403
C         25.46122        16.33158         1.55131
C         24.41923        16.98928         2.45525
C         25.59612        19.29593         2.13426
C         24.32294        18.51221         2.34440
C         25.54642        20.68221         1.57219
C         24.31510        21.36350         1.46108
C         25.51764        23.41743         0.78087
C         24.29376        22.74828         1.13441
C         25.55368        24.81634         0.35599
C         24.58809        25.74003         0.69697
C         25.62991        27.70030        -0.18335
C         24.33765        27.01783         0.04528
C         25.65134        29.15095        -0.58461
C         24.36164        29.51977        -1.31988
C         25.60405        31.70152        -1.71532
C         24.38449        31.01763        -1.60607
C         25.61495        33.15702        -2.13448
C         24.32237        33.85132        -1.79770
C         25.59180        36.09050        -1.61673
C         24.31429        35.33530        -1.67275
C         25.57974        37.54695        -1.90337
C         24.36802        38.23056        -2.06025
C         25.59971        40.37343        -1.98386
C         24.34729        39.67411        -2.06444
C         25.58455        41.79055        -1.94893
C         24.38164        42.49774        -1.74792
C         25.64545        44.64803        -1.39093
C         24.39587        43.90085        -1.41100
C         25.70614        45.95164        -0.93787
C         24.52760        46.60947        -0.37177
C         25.80354        48.71070        -0.01160
C         24.55255        48.07950        -0.17246
C         25.81553        50.18993         0.29564
C         24.60434        50.57483         1.13963
C         25.88854        52.65344         1.76234
C         24.61838        52.05615         1.43417
C         25.95011        53.93775         2.31038
C         24.75086        54.78233         2.35773
C         25.98552        56.44749         3.75785
C         24.71926        55.96738         3.22704
C         25.97145        57.62147         4.58854
C         24.80031        58.30203         4.86805
C         24.76798        59.38940         5.78826
C         27.01369         8.42302         1.63947
C         28.02931        10.60505         1.29418
C         26.96734         9.81569         1.74217
C         27.83249        12.06410         1.00997
C         26.97204        12.76989         2.07639
C         27.84424        14.93083         0.96448
C         26.71004        14.19382         1.64417
C         27.94554        16.34516         1.47440
C         26.80623        17.02767         1.72219
C         28.06122        19.19853         1.43301
C         26.86074        18.50034         1.95699
C         28.02139        20.57892         1.14299
C         26.76120        21.31622         1.15350
C         27.99679        23.33695         0.31818
C         26.74230        22.67580         0.73128
C         27.99604        24.63380        -0.16390
C         26.70184        25.34178        -0.48500
C         28.10617        27.53816        -0.70717
C         26.84336        26.85465        -0.32110
C         28.12296        28.91681        -0.93819
C         26.86474        29.55984        -1.43215
C         28.07967        31.75975        -1.45238
C         26.86397        31.05837        -1.52314
C         28.08619        33.19601        -1.58744
C         26.87265        33.92177        -1.73895
C         28.06531        36.08920        -1.71949
C         26.87060        35.34378        -1.69562
C         28.06980        37.51589        -1.76795
C         26.83135        38.24502        -1.87835
C         28.09902        40.38340        -1.97579
C         26.83842        39.66075        -1.95479
C         28.11749        41.76129        -2.08791
C         26.85384        42.50913        -2.15368
C         28.19336        44.62460        -1.64333
C         26.87353        44.00666        -1.91778
C         28.22966        46.07339        -1.35431
C         26.93891        46.76600        -1.04186
C         28.28534        48.57142         0.08431
C         27.01873        48.05023        -0.30997
C         28.23278        49.73882         1.00278
C         27.07377        50.62606         1.01059
C         28.35988        52.42372         2.12624
C         27.10156        51.84917         1.66002
C         28.35224        53.72973         2.71432
C         27.17855        54.46741         2.84750
C         27.15517        55.73397         3.53065
C         29.13052        12.80742         0.86688
C         30.38274        14.90292         0.87704
C         29.14909        14.17066         0.93611
C         30.46157        16.26123         1.13501
C         29.28078        16.99688         1.73246
C         30.48023        19.11472         1.11087
C         29.26446        18.46398         1.35741
C         30.48424        20.51830         0.87488
C         29.25148        21.24049         0.81909
C         30.50769        23.23288         0.14600
C         29.26535        22.61642         0.43341
C         30.55852        24.61722        -0.37509
C         29.24464        25.33607        -0.55238
C         30.52895        27.52096        -0.55017
C         29.30721        26.81635        -0.58447
C         30.54053        28.94030        -0.68921
C         29.33369        29.64109        -0.96769
C         30.54105        31.77147        -1.10101
C         29.31762        31.06227        -1.18243
C         30.53817        33.20227        -1.31217
C         29.33670        33.88233        -1.53397
C         30.54769        36.05999        -1.38128
C         29.35501        35.33649        -1.94539
C         30.56074        37.55009        -1.42745
C         29.30486        38.25946        -1.75341
C         30.61473        40.37085        -1.84425
C         29.34625        39.64644        -1.88020
C         30.65732        41.76352        -1.97850
C         29.39544        42.51492        -2.36534
C         30.61896        44.64080        -1.80932
C         29.35882        43.92861        -1.81868
C         30.63337        46.04005        -1.49505
C         29.51534        46.71050        -0.97552
C         30.77518        48.48030         0.36279
C         29.53074        47.93395        -0.21527
C         30.77691        49.67921         1.05331
C         29.56354        50.35434         1.49766
C         29.55460        51.74560         1.91581
C         31.68684        16.96389         1.02684
C         32.95345        19.07237         0.99743
C         31.73147        18.36892         1.07057
C         32.98978        20.46982         0.84306
C         31.73126        21.18601         0.68624
C         33.03328        23.21571         0.11798
C         31.73167        22.53771         0.32043
C         33.04395        24.70782        -0.03665
C         31.77232        25.43598        -0.17595
C         32.96253        27.61090        -0.03418
C         31.76989        26.81716        -0.29027
C         32.96074        28.98136        -0.16501
C         31.75930        29.68153        -0.57660
C         33.08804        31.74430        -0.92258
C         31.74804        31.06695        -0.80812
C         33.01605        33.25044        -0.98635
C         31.80788        33.92096        -1.27002
C         33.03413        36.04551        -1.47550
C         31.82781        35.32954        -1.39900
C         33.05275        37.49898        -1.63310
C         31.85425        38.24392        -1.58358
C         33.10994        40.35440        -1.71099
C         31.86099        39.65480        -1.72380
C         33.14427        41.79118        -1.69715
C         31.89741        42.48513        -1.89124
C         33.73793        44.80200        -1.09035
C         31.81081        43.91849        -1.99987
C         33.60378        45.94518        -0.30951
C         32.51786        46.85673        -0.50385
C         32.05435        47.77755         0.40118
C         34.21774        21.17619         0.84112
C         35.47952        23.29581         0.62901
C         34.28262        22.55988         0.58612
C         35.52314        24.72127         0.53351
C         34.22567        25.43949         0.49438
C         35.45819        27.66993         0.50744
C         34.17975        26.94449         0.49326
C         35.45373        29.09732         0.44048
C         34.07678        29.76068         0.50677
C         35.37878        31.99379         0.19808
C         34.10153        31.23445         0.09971
C         35.44620        33.37276        -0.38190
C         34.21555        33.98336        -0.93643
C         35.52400        35.95679        -1.73774
C         34.24419        35.33765        -1.32359
C         35.55665        37.42896        -2.13613
C         34.28884        38.17692        -1.76182
C         35.59667        40.24050        -1.55191
C         34.31804        39.58010        -1.70321
C         35.59741        41.59878        -1.29596
C         34.42231        42.41142        -1.34923
C         34.61306        43.72232        -0.85879
C         36.68391        25.47545         0.60239
C         37.87775        27.62618         0.72980
C         36.68513        26.92594         0.60905
C         37.92147        29.11106         0.92931
C         36.62824        29.81866         0.59435
C         37.91979        31.87525        -0.12124
C         36.69129        31.33787         0.63369
C         37.98366        33.17552        -0.57773
C         36.76405        34.01036        -0.62152
C         38.09286        35.97728        -1.46549
C         36.80103        35.24545        -1.46216
C         38.06223        37.36068        -1.55429
C         36.83783        38.11013        -1.66902
C         36.81603        39.47583        -1.49332
C         39.10850        29.74241         0.24229
C         40.33549        31.66199        -0.67301
C         39.11787        31.05343        -0.17126
C         40.39179        32.97235        -1.04488
C         39.21239        33.80010        -1.02941
C         39.26277        35.16301        -1.34772
O         30.37597        36.80198        -0.14029
O         28.74233        49.45744         2.34340
O         23.16586        21.29105         3.44778
O         27.50204        46.84639        -2.40195
O         26.77567        43.47698        -3.28890
O         16.49230        44.13830         1.24199
O         33.91652        26.15452         1.72833
O         21.81166        13.28612         3.71930
O         16.35531        31.59199        -3.05133
O         11.91924        29.42433         0.98346
O         34.34291        32.06699         1.25990
O         33.26484        23.84564        -1.20286
O         18.49995        25.37481         1.37353
O         36.09139        34.24435         0.65989
O         26.49994        19.06805         3.26750
O         23.93321        45.92759         0.79226
O         10.13363        26.73266         0.92088
O         19.56174        14.55905         3.27204
O         36.17433        35.09828        -2.78047
O         19.76428        37.81308        -3.46084
O         26.48839        27.40445         1.00071
O         29.94207        24.74417        -1.71056
O         25.89683        11.15240         3.57194
O         31.81531        46.73582        -1.71773
O         12.50173        37.93802        -2.04309
O         24.76851        35.80548        -0.37269
O         19.17733        28.78203        -2.68252
O         24.12448        55.01522         1.04740
O         32.95370        44.66383        -2.25819
O         20.62003        50.08862        -1.11295
O         16.21123        29.04417        -3.12768
O         18.84122        19.32466        -1.16404
O         16.96223        47.77576        -1.30968
O         23.74938        25.50611         1.78819
O         27.38569        15.04406        -0.48253
O         15.22935        16.38948         2.14006
H         15.87584        16.01579         2.77573
O         21.11630        40.05765        -0.28585
H         20.35834        40.16686         0.33833
O         21.62098        39.88477        -3.88392
H         20.94179        39.22369        -4.15994
O         24.68911        14.17882         4.08199
H         23.86151        13.89279         4.52946
O          7.71844        31.50339        -1.58575
H          8.17465        32.18484        -2.13596
O         24.21860         9.25510         3.65486
H         24.61061         9.95849         4.22883
O         17.19335        34.23497         0.26779
H         17.55404        33.44963         0.73321
O         14.59361        33.71499         0.83139
H         15.41956        34.20571         1.05936
O         27.76640        12.83067         3.27249
H         27.19208        13.15030         4.00069
O         25.66959        33.13593        -3.61800
H         25.13969        33.89360        -3.94994
O         23.07104        29.84157         0.72000
H         24.00394        29.94006         1.04696
O         26.44324        25.14384        -1.90451
H         26.61298        24.20309        -2.12066
O         23.25975         5.60955         2.49615
H         23.48784         4.65981         2.41641
O         14.93434        16.18148        -1.50363
H         15.72702        16.65582        -1.82955
O         26.78187        29.06010        -2.81455
H         27.53738        29.44584        -3.30648
O         18.67508        39.75631         0.48391
H         18.04724        40.16264         1.11886
O         13.26126        22.97249        -2.53202
H         14.03287        23.49153        -2.84630
O         12.72147        27.26300        -2.72152
H         13.49681        27.51909        -3.26553
O         33.66239        31.31154        -2.20509
H         33.05237        31.59174        -2.92017
O         24.91484        16.74644         3.78521
H         24.40953        17.31715         4.40370
O         17.17011        21.05075        -2.10344
H         17.65913        20.24090        -2.38038
O         24.81132         8.94094         0.05879
H         24.90489         8.16051        -0.52881
O         22.26637        48.36244        -2.09187
H         21.85350        49.23381        -2.30593
O         12.69170        46.36700        -1.31085
H         13.40147        46.13016        -1.95253
O         25.71314        50.90005        -0.96483
H         26.38915        50.54591        -1.57921
O         28.27119        15.98420        -1.13578
H         29.07297        15.44030        -1.33477
O         20.41026        29.66751         0.67376
H         21.29284        29.72122         1.11632
O         38.17046        29.31921         2.37352
H         37.86667        30.23603         2.58426
O         19.22947        35.09673        -3.65410
H         19.27173        36.01396        -4.02326
O         20.32925        42.16281        -3.23829
H         20.88362        41.55648        -3.78957
O         16.53924        34.99453        -3.25098
H         17.39479        34.75321        -3.68685
O         16.12010        26.56324        -2.80660
H         16.47059        27.27064        -3.40316
O         23.53929        58.88391         2.94073
H         24.28271        58.60819         2.36298
O         21.77739        28.92036        -2.61113
H         22.66087        28.95855        -3.05003
O         15.38615        45.83465        -1.83378
H         15.69739        46.67584        -2.24606
O         20.16354        23.86466         2.32219
H         20.15150        23.05061         2.88152
O         13.89471        30.91288        -3.19029
H         14.72435        30.82978        -3.72139
O         35.59087        37.48719        -3.59088
H         36.03380        36.65864        -3.89161
O          8.99263        33.08980         1.52136
H          8.54281        32.41048         2.07901
O         27.06149        12.15436        -0.23245
H         27.57700        11.71999        -0.94350
O         16.42961        27.39274         0.75273
H         17.02098        26.98566         1.42838
O         18.32768        45.98427         1.51256
H         17.74825        45.23948         1.81999
O         24.30105        28.75996        -2.54430
H         25.09853        28.96374        -3.09187
O         33.71925        29.70492         1.91236
H         34.07807        30.52436         2.32925
O         21.93439        34.11900         0.12239
H         22.80254        34.52337         0.34349
O         20.80861        21.30235         2.78586
H         21.42983        21.40302         3.55576
O         23.27163        35.75964        -3.71793
H         22.48631        36.12124        -4.18210
O         21.55981        20.33796        -0.63081
H         20.93921        19.93333        -1.27914
O         29.45139        42.67675        -3.82352
H         28.58979        43.08365        -4.08599
O         14.58406        37.73330         0.96264
H         15.46432        38.02872         1.27752
O          8.96717        33.77879        -2.07196
H          9.65285        34.22175        -2.61593
O         25.68314         7.09531         3.15959
H         25.10364         7.72124         3.66395
O         36.91371        31.74373         2.01971
H         36.68683        32.70268         2.06953
O         20.66211        24.16460        -1.29305
H         20.80809        24.92685        -1.89223
O         24.76020        49.88819         2.41492
H         23.98923        50.10642         2.97838
O         25.73079        29.92235         0.64072
H         26.28284        29.39596         1.26657
O         29.57557        35.33449        -3.39943
H         28.83955        34.83284        -3.81050
O         18.74307        40.19215        -3.14830
H         18.96806        39.57355        -3.87578
O         20.45047        10.09343         3.42446
H         21.10013        10.60171         3.95610
O         29.47596        16.93931         3.18020
H         30.32126        17.39183         3.38436
O         15.46966        50.53425        -0.52399
H         16.14806        50.15585        -1.12239
O         23.52622        18.88399         3.53398
H         23.63278        20.59706         3.97944
O          7.64223        30.85084         2.01145
H          7.01783        30.29791         2.52572
O         25.03898        16.46355         0.17846
H         25.73511        16.02966        -0.37748
O         16.27374        48.39647         2.33777
H         16.73346        47.52831         2.37673
H          4.96125        31.06430         0.66091
H          4.91841        33.49028         0.40668
H          7.42022        26.99336        -1.06852
H          6.19867        28.86601         0.14440
H          6.13978        35.69111         0.29815
H          7.42198        37.83289         0.50278
H          9.88270        22.39448        -0.42375
H          8.57742        24.35978        -0.81432
H          8.66444        40.00487         0.42874
H          9.90950        42.16699         0.41833
H         12.47334        18.22796        -0.34379
H         11.19272        20.31030        -0.30205
H         11.11883        44.29929         0.25944
H         12.43146        46.34323         0.73920
H         14.95260        14.03785         0.42601
H         13.65900        16.22032         0.11934
H         13.66917        48.40165         1.09327
H         15.00073        50.58891         1.48430
H         17.53260         9.95994         0.52576
H         16.27282        11.99051         0.51722
H         16.27440        52.53775         2.07951
H         17.57961        54.40549         3.03148
H         19.97818         5.90003         0.14306
H         18.74349         7.87555         0.55341
H         18.87918        56.29435         3.93578
H         20.14381        58.04413         5.03345
H         23.51663         2.98520        -1.20798
H         21.30084         3.98729        -0.69160
H         23.56738        60.76946         6.92653
H         21.39860        59.77499         6.23896
H         25.61477         4.14547        -0.59914
H         26.77010         5.98320         0.53108
H         26.91144        57.93578         5.06854
H         25.71297        59.74418         6.22616
H         27.95190         7.94756         1.31090
H         28.93444        10.10803         0.90848
H         29.29766        54.13928         3.10016
H         28.09981        56.11297         3.94930
H         30.07581        12.24549         0.80613
H         31.30202        14.34898         0.62761
H         31.74137        50.09481         1.38365
H         30.51458        52.26365         2.05835
H         32.61048        16.40394         0.81485
H         33.89781        18.50982         1.03757
H         34.21672        46.04069         0.59731
H         32.68669        47.99013         1.27636
H         35.14418        20.62654         1.06556
H         36.42065        22.75898         0.82327
H         36.55073        42.09599        -1.06150
H         35.52187        43.90930        -0.26596
H         37.65579        24.96566         0.68170
H         38.82397        27.07283         0.83026
H         39.00366        37.92601        -1.46540
H         37.74813        40.01076        -1.25148
H         40.04349        29.16176         0.20175
H         41.24143        31.03929        -0.71016
H         41.34048        33.41174        -1.38596
H         40.24591        35.62449        -1.52765
