         317
 CSIRO Nanostructure Databank - Neutral Graphene Oxide Data Set
C         30.37478        31.64473        -0.86661
C         30.32547        32.88792        -0.90943
C         30.20583        36.02368        -0.31126
C         30.34701        37.30018        -0.31061
C         30.23303        40.51530        -0.23365
C         30.24315        41.74628        -0.25532
C         32.73228        28.82815        -0.14211
C         31.63675        29.38674        -0.43552
C         32.68624        31.50263        -0.26558
C         31.48194        30.77519        -0.58267
C         32.68855        33.00660        -0.56778
C         31.35477        33.71480        -0.15036
C         32.58218        35.93686        -0.04680
C         31.40250        35.22090        -0.27805
C         32.53732        37.37351         0.46223
C         31.34769        38.19868        -0.09384
C         32.65102        40.35910        -0.27020
C         31.35742        39.64979         0.24827
C         32.67999        41.87965         0.00281
C         31.30815        42.64994         0.30932
C         32.58093        44.57724        -0.38920
C         31.48777        44.02120        -0.24935
C         35.44858        27.29995         0.43210
C         35.23051        28.72092         0.33986
C         33.98149        29.41108         0.12364
C         35.12980        31.63792         0.30453
C         33.89430        30.84474         0.06423
C         35.19492        33.06307        -0.08647
C         33.87320        33.79558         0.06161
C         35.19506        35.99650        -0.22870
C         33.86205        35.25563        -0.49532
C         35.19821        37.43388         0.22091
C         33.85886        38.16789         0.42267
C         35.11201        40.37371         0.29721
C         33.87602        39.61576         0.18952
C         35.13879        41.75024        -0.41368
C         33.84556        42.54984        -0.19289
C         35.08787        44.78645        -0.20478
C         33.91006        44.00250        -0.76280
C         35.56933        46.04528        -0.77571
C         37.78825        27.16424         0.87294
C         36.48114        26.61066         0.48149
C         37.71059        28.68791         0.77403
C         36.43562        29.40052         0.47139
C         37.68401        31.59294         0.01179
C         36.42413        30.88842         0.49885
C         37.72295        33.08708         0.30587
C         36.39699        33.81880         0.47571
C         37.81636        36.02070         0.20241
C         36.49309        35.25732        -0.02994
C         37.64822        37.44484         0.79351
C         36.50815        38.21016         0.03163
C         37.77449        40.40002         0.62792
C         36.42871        39.64051         0.56502
C         37.72902        41.59005        -0.36090
C         36.45881        42.48361        -0.00495
C         37.82826        44.60801        -0.25195
C         36.60520        43.84847        -0.68517
C         37.89955        46.01231        -0.31456
C         36.64488        46.67295        -0.67537
C         40.39861        24.42043         0.95694
C         39.35940        25.10654         0.89650
C         40.26820        27.19521         0.38888
C         39.10853        26.50476         0.71299
C         40.18361        28.66386        -0.04760
C         39.01361        29.42051         0.61053
C         40.19684        31.63623         0.04437
C         38.96603        30.88966         0.43745
C         40.21510        33.03033         0.65415
C         38.88974        33.75633         0.47211
C         40.23411        35.94422         0.74894
C         38.90090        35.21159         0.93621
C         40.25604        37.44528         1.00771
C         38.97601        38.18533         0.64051
C         40.26697        40.26622         0.33166
C         39.00460        39.52827         0.40986
C         40.28722        41.64335         0.17656
C         39.08728        42.39649        -0.39848
C         40.32280        44.58956        -0.00271
C         39.00977        43.79797         0.25803
C         40.25627        45.97183         0.71861
C         39.03429        46.71443         0.13676
C         40.22064        48.85890         0.55847
C         39.27846        48.08866         0.24355
C         43.02792        24.53127         0.63599
C         41.64420        24.89068         0.35898
C         42.86874        27.26663         0.02830
C         41.55045        26.48151         0.15031
C         42.79423        28.79061         0.35370
C         41.47813        29.42986         0.01759
C         42.74670        31.66208         0.23261
C         41.48568        30.88015        -0.15197
C         42.67296        33.14977        -0.09742
C         41.39789        33.85146         0.19029
C         42.72078        35.98460         0.83221
C         41.40085        35.27851         0.58446
C         42.69689        37.30450         0.00920
C         41.49026        38.13190         0.43019
C         42.74785        40.23197        -0.12290
C         41.50236        39.48521         0.29243
C         42.79065        41.58253         0.60952
C         41.53226        42.39915         0.32014
C         42.87984        44.55315         0.29772
C         41.56798        43.77023         0.33400
C         42.78831        45.94038         1.03050
C         41.57202        46.78408         0.51321
C         42.82692        48.83530         0.86231
C         41.48078        48.26034         1.19131
C         44.03889        25.24830         0.54358
C         45.33384        27.50641         0.43729
C         44.10733        26.72454         0.87221
C         45.28773        28.74724        -0.13959
C         43.96822        29.47999        -0.39510
C         45.19475        31.70558        -0.31310
C         44.05372        30.98990        -0.13991
C         45.13200        33.21681        -0.58738
C         43.94611        33.90588         0.04758
C         45.26811        35.91132         0.73343
C         43.96643        35.18011         0.49943
C         45.27100        37.27596        -0.04466
C         44.00319        38.06615         0.08590
C         45.28797        40.16247         0.11840
C         44.03612        39.44221         0.05267
C         45.25858        41.60070         0.16673
C         44.08106        42.30776         0.31826
C         45.35073        44.50627         0.18205
C         44.14548        43.76361         0.74146
C         45.36275        46.00386         0.40158
C         44.14728        46.71773         0.86004
C         43.84574        48.14550         0.78446
C         48.49444        29.05672         0.72033
C         48.99234        29.24658         1.85332
C         47.84969        28.85140        -0.51671
C         46.48019        29.50956        -0.71601
C         47.86504        31.75318        -0.53515
C         46.52384        30.98102        -0.06604
C         47.63930        33.27178        -0.95456
C         46.44061        33.92239        -0.30879
C         47.80900        35.82869         0.60638
C         46.49945        35.12579         0.30412
C         47.78917        37.27482         0.05478
C         46.52665        38.05745         0.20844
C         47.85571        40.20698         0.36238
C         46.53731        39.43625         0.18983
C         47.71151        41.57124        -0.36058
C         46.55732        42.37752         0.31071
C         47.70832        44.44045        -0.82202
C         46.43913        43.81001        -0.21933
C         47.52521        45.91350        -0.67258
C         46.56699        46.54906        -0.23477
C         50.05564        28.49103        -1.38795
C         48.63870        28.32982        -1.56283
C         50.22753        31.15945         0.26975
C         48.95782        31.62895         0.53291
C         50.11968        33.58655        -1.51703
C         48.92814        34.04674        -0.76024
C         50.35820        35.76778         0.36066
C         49.02810        35.12536         0.04926
C         50.42192        37.20907        -0.25399
C         49.08626        37.98420        -0.21338
C         50.32455        40.14142        -0.08668
C         49.13944        39.46871        -0.07520
C         50.32693        41.64753        -0.10775
C         49.02795        42.34979        -0.36801
C         50.11879        44.30434         0.25151
C         48.92247        43.84532        -0.16289
C         50.95597        29.21994        -0.97141
C         52.21517        31.50943        -1.14201
C         51.35401        30.52473        -0.47490
C         52.29910        32.74515        -1.07620
C         51.46755        33.90603        -0.96607
C         52.70836        35.84464         0.17245
C         51.59415        35.00974        -0.16665
C         52.77641        37.08521         0.23925
C         51.60355        38.04584         0.40355
C         52.68746        40.33597         0.38315
C         51.69373        39.41172        -0.26919
C         52.59433        41.54463         0.62556
C         51.50130        42.44984         0.45467
C         51.26399        43.78772         0.59938
O         46.75644        42.57511         1.70234
O         47.36611        33.19789        -2.40641
O         41.44223        25.46723        -0.92890
O         37.69176        27.96868         2.06670
O         45.32697        36.80496        -1.49331
O         36.05872        35.62805        -1.36275
O         35.76320        31.40499         1.69349
O         41.82838        33.60521        -1.19665
O         39.19143        30.31395         1.77041
O         49.93737        42.05662        -1.49027
O         45.14810        46.30858         1.81499
O         40.66386        31.42314        -1.29953
O         51.30998        30.74017         1.01025
O         34.68768        37.64755         1.54158
O         48.25133        37.47221        -1.32611
O         35.08911        41.47963        -1.81742
O         42.54447        40.46921        -1.58417
O         50.00424        32.95534        -2.57285
O         35.62607        40.00679         1.68483
O         39.43711        42.58016        -1.78346
H         38.84858        41.96524        -2.30180
O         32.75191        33.05963        -1.99987
H         33.59833        32.66377        -2.29209
O         33.62348        33.98501         1.47160
H         33.68783        33.11728         1.92452
O         40.38301        44.93740        -1.39948
H         40.14384        44.13001        -1.92763
O         37.64223        31.43546        -1.43333
H         38.55200        31.53490        -1.79532
O         45.59478        37.94471        -2.32335
H         46.58905        37.94504        -2.37683
O         36.80327        38.35117        -1.35353
H         37.29446        37.54811        -1.66300
O         31.41482        39.75650         1.66891
H         30.74648        39.16389         2.07176
O         38.66684        35.17739         2.35964
H         39.29258        34.51151         2.73474
O         43.59892        29.47486        -1.79372
H         44.43978        29.55775        -2.30873
O         46.22743        29.65678        -2.12121
H         46.90830        30.27974        -2.47473
O         48.12614        27.89748        -2.71956
H         48.83092        27.66937        -3.35645
O         43.29381        27.11632        -1.32902
H         42.93467        26.26007        -1.66126
O         43.92426        26.83005         2.27227
H         44.79792        26.72565         2.70441
O         43.12313        44.83943        -1.10448
H         43.05129        43.99916        -1.60838
O         36.59535        43.71618        -2.07517
H         36.01777        42.93356        -2.30256
O         31.16489        42.69442         1.70140
H         30.41391        43.27713         1.93282
O         39.76426        28.62091        -1.45158
H         40.55672        28.43709        -2.00189
O         44.31366        43.66885         2.18517
H         45.26141        43.30735         2.27942
O         47.63787        34.51076        -2.95345
H         48.48838        34.36769        -3.44095
O         41.75797        47.09070        -0.85591
H         41.65569        46.26998        -1.39803
O         40.36884        37.58808         2.47479
H         40.25691        38.53944         2.69456
O         46.49915        30.87595         1.35474
H         47.24069        30.30935         1.67678
O         47.75416        44.04314        -2.20701
H         48.62714        44.29674        -2.57551
O         43.45000        41.51009        -2.02521
H         44.22132        41.00368        -2.38419
O         44.87554        33.32984        -2.01733
H         43.90595        33.29622        -2.16770
O         51.35401        38.28446         1.76012
H         51.24669        37.41114         2.21269
O         50.54037        35.79467         1.78944
H         49.65188        35.78136         2.23142
O         34.94472        44.88214         1.16951
H         35.57881        45.53200         1.53316
O         47.32280        41.30198        -1.71719
H         47.47632        42.13186        -2.23448
O         33.69651        35.29240        -1.92430
H         34.57503        35.13782        -2.34099
O         32.72697        40.19519        -1.70684
H         33.57650        40.66462        -1.99790
O         48.70376        32.19343         1.74793
H         49.36224        31.87294         2.39986
O         41.29274        48.18504         2.56528
H         41.41146        49.06892         2.96849
O         47.96316        35.92926         2.04296
H         47.06510        36.07492         2.44388
O         37.59888        40.99924        -1.65584
H         36.63058        40.97438        -1.93882
O         36.23700        34.00576         1.91057
H         36.09897        33.10536         2.29659
O         45.38738        36.22503         2.13801
H         44.47382        36.31213         2.52042
O         37.25006        37.40691         2.15665
H         37.77627        36.71382         2.62613
O         42.60487        45.70657         2.42689
H         43.40581        45.21649         2.75045
O         40.00219        45.83671         2.12597
H         40.87413        45.86183         2.60556
O         42.49256        36.89854        -1.36448
H         42.78260        37.62301        -1.95789
O         38.85409        43.55270         1.67154
H         39.12360        44.37224         2.16712
O         36.33962        42.67393         1.40418
H         37.21070        42.98663         1.76472
O         42.80480        41.28354         2.03003
H         43.20354        42.06573         2.48567
O         32.20178        37.22703         1.87632
H         33.04456        37.04173         2.35532
O         38.40213        36.24434        -1.11095
H         38.40922        35.39891        -1.60809
O         33.97406        43.87589        -2.16970
H         34.14325        42.92082        -2.39118
O         40.35255        32.90355         2.09813
H         39.97383        32.03981         2.38194
O         37.98798        40.85619         1.97480
H         37.11957        40.81421         2.44380
O         42.75373        31.68018         1.69124
H         43.04127        30.78444         2.00556
O         31.12402        33.46839         1.23092
H         30.38600        34.03603         1.53683
O         43.01306        29.01997         1.77359
H         42.32344        28.55285         2.29147
O         42.77773        36.31900         2.24190
H         41.93347        36.77354         2.51182
O         51.98759        39.28451        -1.65304
H         52.00824        40.17994        -2.05265
O         48.06146        40.38578         1.76863
H         47.55006        41.20803         2.05952
O         48.37073        31.07799        -1.69896
H         48.79804        31.74585        -2.30396
O         46.46077        26.82147         0.75990
H         47.27049        27.35985         0.61986
O         50.72376        36.95456        -1.62867
H         51.00019        37.79847        -2.06067
