         640
 CSIRO Nanostructure Databank - Neutral Graphene Oxide Data Set
C         23.05741        27.42108         0.79623
C         23.02455        28.78873         0.73400
C         22.94015        31.65140         0.12499
C         22.93247        33.00802        -0.04928
C         22.96765        35.92714         0.27040
C         22.98564        37.30363         0.34197
C         22.97611        40.23102         0.23960
C         22.99248        41.61377         0.21221
C         23.20428        44.47927        -0.59555
C         23.40831        45.72343        -1.08705
C         25.47133        24.57589         0.56398
C         24.28217        25.27461         0.62479
C         25.51866        27.38606         0.54993
C         24.28386        26.68897         0.64599
C         25.53676        28.88125         0.77118
C         24.21186        29.55990         0.49517
C         25.35415        31.56796        -0.50914
C         24.15885        30.89649         0.12715
C         25.37989        33.07676        -0.39120
C         24.13753        33.77675        -0.23354
C         25.29761        35.96321        -0.52722
C         24.10601        35.19074        -0.15188
C         25.37607        37.39290        -0.19047
C         24.17875        38.06258         0.12617
C         25.42908        40.20194         0.19171
C         24.18572        39.50306         0.20716
C         25.43891        41.62681         0.30847
C         24.21028        42.31610         0.25668
C         25.44089        44.52628         0.67152
C         24.18012        43.79808         0.29126
C         25.46653        45.96074         0.24560
C         24.54803        46.51839        -0.66822
C         25.86515        48.59009        -0.70581
C         24.75628        47.84860        -1.10966
C         28.05120        23.21641         0.96183
C         27.95806        24.53787         0.51114
C         26.71604        25.25865         0.50171
C         28.03140        27.43335         0.61727
C         26.72220        26.68384         0.47207
C         27.96831        28.85815         0.10614
C         26.73487        29.55746         0.14216
C         27.87989        31.62959        -0.44781
C         26.67707        30.91084        -0.20009
C         27.85597        33.05578        -0.59883
C         26.59240        33.74870        -0.54863
C         27.87032        35.94650        -0.60520
C         26.60559        35.20533        -0.74478
C         27.86040        37.35203        -0.41567
C         26.62466        38.07698        -0.21717
C         27.90385        40.18310         0.09019
C         26.65741        39.47806         0.03913
C         27.92329        41.59621         0.33530
C         26.69816        42.34251         0.46105
C         27.99880        44.36828         0.89603
C         26.72039        43.72985         0.74853
C         28.14214        45.74403         1.26213
C         26.40460        46.82854         0.80512
C         28.01616        48.71882         0.65976
C         26.74938        48.08101         0.27464
C         28.07220        50.13134         0.62729
C         30.49032        23.15596         0.63717
C         29.26153        22.52896         1.00176
C         30.47032        24.50643         0.20403
C         29.16123        25.18871        -0.11168
C         30.37514        27.33712        -0.27783
C         29.23160        26.68608         0.07735
C         30.40448        28.79270        -0.40220
C         29.14235        29.51381        -0.29092
C         30.30921        31.64166        -0.81400
C         29.11476        30.92634        -0.51296
C         30.28190        33.03099        -0.92790
C         29.06486        33.76928        -0.78393
C         30.30066        35.95090        -0.80004
C         29.08162        35.22602        -0.74621
C         30.32235        37.34113        -0.54798
C         29.10160        38.05594        -0.33815
C         30.38391        40.15070        -0.01055
C         29.12461        39.46609        -0.09273
C         30.40791        41.54673         0.25819
C         29.18232        42.26579         0.40664
C         30.46218        44.38392         0.70261
C         29.21302        43.67094         0.64999
C         30.48716        45.81046         0.78458
C         29.25885        46.52643         0.95697
C         30.46347        48.68654         0.96079
C         29.21444        47.98356         0.91375
C         30.47544        50.11048         0.98540
C         29.25279        50.81170         0.84585
C         32.98640        20.35980         0.90992
C         31.81100        21.06151         0.99502
C         32.93579        23.11271         0.26128
C         31.74186        22.44719         0.66138
C         32.88648        24.48848        -0.10101
C         31.66162        25.17181        -0.13846
C         32.86575        27.33882        -0.66200
C         31.57751        26.55103        -0.77764
C         32.84137        28.74711        -0.73451
C         31.57182        29.44985        -0.73765
C         32.83286        31.63301        -1.01001
C         31.54216        30.87439        -1.23505
C         32.82295        33.02992        -1.12598
C         31.53384        33.74536        -1.26891
C         32.83426        35.95996        -1.06231
C         31.54253        35.25551        -1.19387
C         32.79614        37.34468        -0.79870
C         31.58271        38.04679        -0.51723
C         32.87144        40.11995        -0.01402
C         31.60723        39.43417        -0.21330
C         32.86047        41.50545         0.38876
C         31.66745        42.23117         0.43066
C         32.90895        44.38429         0.77225
C         31.68728        43.66849         0.63749
C         32.91654        45.78935         0.93888
C         31.71769        46.51828         0.87787
C         32.93634        48.66938         0.96691
C         31.71662        47.97081         0.97005
C         32.95640        50.10758         1.03634
C         31.72711        50.82104         1.11042
C         32.97093        52.88905         1.41181
C         31.76882        52.22299         1.30300
C         35.52195        18.85696         0.77301
C         35.42955        20.25806         0.41405
C         34.20597        20.98970         0.50627
C         35.39458        23.06384        -0.11539
C         34.17522        22.37978         0.18873
C         35.39230        24.47827        -0.35139
C         34.09278        25.14687        -0.72276
C         35.29885        27.36912        -0.55213
C         34.09447        26.65328        -0.57612
C         35.30102        28.77871        -0.72280
C         34.06462        29.47767        -0.80784
C         35.28466        31.63808        -1.01831
C         34.05737        30.92038        -0.92304
C         35.25552        33.04276        -1.18579
C         34.04077        33.76683        -1.19455
C         35.30803        35.91378        -1.19930
C         34.05114        35.22851        -1.21167
C         35.33977        37.38541        -1.13857
C         34.03134        38.13196        -0.89940
C         35.40065        39.94358         0.24849
C         34.07336        39.46894        -0.30103
C         35.43142        41.44227         0.52074
C         34.14089        42.19860         0.65982
C         35.37457        44.35395         0.68003
C         34.16999        43.68024         0.67925
C         35.44848        45.78218         0.92484
C         34.18152        46.48104         1.38092
C         35.39955        48.62306         1.09467
C         34.20623        47.95994         1.06776
C         35.46888        50.08443         0.73328
C         34.19083        50.81438         1.07344
C         35.47752        52.91973         1.35940
C         34.20661        52.20377         1.27048
C         35.50459        54.31920         1.51458
C         37.80972        18.72238        -0.20014
C         36.65066        18.13940         0.56888
C         37.86220        20.22243        -0.04023
C         36.63871        20.93614         0.07893
C         37.86007        23.06721        -0.22795
C         36.62661        22.36254        -0.07883
C         37.84169        24.49672        -0.32635
C         36.58357        25.18377        -0.36609
C         37.82574        27.36711        -0.63959
C         36.57800        26.67827        -0.16213
C         37.79637        28.77484        -0.84540
C         36.55082        29.49069        -0.85006
C         37.77784        31.59088        -1.13944
C         36.54998        30.90325        -1.01050
C         37.76646        33.09014        -0.99954
C         36.52452        33.75148        -1.58894
C         37.78024        35.92971        -1.25405
C         36.53333        35.23284        -1.27454
C         37.81523        37.35417        -1.06450
C         36.61703        38.06251        -0.85666
C         37.84635        40.12479        -0.39559
C         36.63550        39.42332        -0.45861
C         37.85735        41.54849        -0.06809
C         36.66141        42.19849         0.20932
C         37.93641        44.39311         0.38927
C         36.61871        43.65726         0.28559
C         37.93884        45.69821         1.14521
C         36.63942        46.45049         1.00783
C         37.95680        48.61564         1.17571
C         36.65930        47.88367         1.47883
C         37.93809        50.06793         1.24304
C         36.73324        50.77795         1.18827
C         37.93894        52.92630         1.45901
C         36.71026        52.20512         1.33362
C         37.93603        54.34220         1.63397
C         36.69581        55.01386         1.65866
C         40.39927        15.96917         0.29996
C         39.18122        16.63544         0.16681
C         40.34300        18.77517         0.03196
C         39.13130        18.02783         0.04074
C         40.32085        20.19827        -0.08788
C         39.09510        20.91560        -0.12210
C         40.31898        23.08047        -0.32114
C         39.09060        22.36217        -0.19791
C         40.29588        24.50795        -0.50407
C         39.05753        25.21497        -0.47365
C         40.26830        27.35183        -0.87019
C         39.03734        26.65333        -0.65938
C         40.26469        28.76669        -1.04462
C         39.02449        29.47443        -1.04063
C         40.26352        31.58678        -1.32755
C         39.01598        30.89746        -1.18243
C         40.27717        33.02713        -1.63195
C         38.98211        33.77917        -1.57155
C         40.25459        35.91470        -1.39262
C         39.01825        35.23803        -1.38910
C         40.25882        37.33766        -1.29188
C         39.06298        38.05479        -1.08374
C         40.28882        40.15721        -0.67939
C         39.07395        39.47137        -0.78209
C         40.34552        41.47523        -0.02635
C         39.11076        42.26279         0.04399
C         40.43366        44.34654         0.49385
C         39.18709        43.61513         0.37294
C         40.38977        45.78381         0.72143
C         39.20122        46.48922         0.90489
C         40.45806        48.63646         1.35638
C         39.15398        47.92069         1.07058
C         40.42153        50.11934         1.13892
C         39.18984        50.79734         1.26440
C         40.40538        52.93851         1.34748
C         39.17816        52.22162         1.35084
C         40.40725        54.35715         1.55919
C         39.18807        55.05862         1.74885
C         40.43258        57.12998         2.10219
C         39.23451        56.45287         2.02939
C         42.87628        15.98962         0.32583
C         41.61412        16.68424         0.27416
C         42.84884        18.81372        -0.03420
C         41.59743        18.09401         0.14190
C         42.84554        20.17193        -0.27613
C         41.61100        20.94477         0.12772
C         42.75958        23.06581        -0.51562
C         41.55424        22.38272        -0.30510
C         42.74816        24.49207        -0.71947
C         41.51737        25.21016        -0.70501
C         42.70440        27.35326        -1.12365
C         41.50524        26.64239        -0.88726
C         42.73435        28.76511        -1.23840
C         41.49831        29.47502        -1.18725
C         42.73815        31.62086        -1.37772
C         41.48753        30.90001        -1.29736
C         42.74750        33.04897        -1.42080
C         41.53126        33.78634        -1.51010
C         42.76876        35.90642        -1.37515
C         41.51527        35.19062        -1.45664
C         42.79521        37.32908        -1.36400
C         41.52363        38.05329        -1.47391
C         42.82368        40.22414        -0.91281
C         41.52636        39.56548        -1.15816
C         42.86135        41.58690        -0.55541
C         41.66494        42.23284         0.01388
C         42.90016        44.38321         0.04268
C         41.65278        43.69518         0.18942
C         42.97138        45.78595         0.49309
C         41.68490        46.50246         0.83675
C         42.87084        48.67976         0.62737
C         41.69419        47.97489         0.80894
C         42.87989        50.13455         0.72782
C         41.63740        50.82545         0.99558
C         42.85758        52.97174         1.05441
C         41.63198        52.24914         1.12559
C         42.87140        54.37991         1.30657
C         41.64739        55.06237         1.58645
C         42.90673        57.14499         1.89507
C         41.66250        56.45735         1.86530
C         44.06096        16.66025         0.23356
C         45.30902        18.81465         0.17367
C         44.11113        18.08712         0.06417
C         45.36516        20.22026        -0.17491
C         44.09947        20.83512        -0.82628
C         45.08093        23.11746        -1.07178
C         43.99352        22.35600        -0.72012
C         45.20858        24.53042        -0.91435
C         43.96540        25.19479        -0.91914
C         45.29599        27.32550        -1.27126
C         43.94660        26.60082        -1.27413
C         45.23861        28.78832        -1.17702
C         43.98816        29.47368        -1.31551
C         45.20173        31.63226        -1.34142
C         43.96638        30.90753        -1.36198
C         45.20374        33.01527        -1.29040
C         43.98348        33.75709        -1.34494
C         45.25313        35.89589        -1.33192
C         43.99169        35.17899        -1.34487
C         45.24026        37.34181        -1.29168
C         44.01782        38.05179        -1.27683
C         45.24096        40.24175        -1.12752
C         44.02500        39.51062        -1.13234
C         45.24244        41.64073        -1.04277
C         44.05472        42.32932        -0.70365
C         45.32410        44.47667        -0.48512
C         44.07053        43.74963        -0.40233
C         45.35713        45.89240        -0.19492
C         44.16843        46.58294         0.18813
C         45.32204        48.74693         0.22548
C         44.12980        47.99614         0.34037
C         45.32607        50.17592         0.27133
C         44.06307        50.85927         0.52952
C         45.24292        53.04194         0.50885
C         44.06161        52.29592         0.69153
C         45.30376        54.41521         0.88096
C         44.09544        55.09990         1.29096
C         44.08361        56.48512         1.61325
C         47.64422        18.84731         0.94644
C         46.56405        18.15315         0.52889
C         47.49021        20.33667         1.13863
C         46.59430        20.86334         0.03486
C         47.85535        23.02692        -0.06388
C         46.93833        22.12271        -0.54883
C         47.59522        24.52073         0.08381
C         46.47525        25.20239        -0.72433
C         47.65010        27.38298        -0.44143
C         46.49498        26.60449        -0.79862
C         47.66438        28.78688        -0.69967
C         46.46416        29.46376        -1.04800
C         47.74550        31.63678        -1.24902
C         46.48942        30.87421        -1.55623
C         47.73141        32.99991        -1.32150
C         46.47262        33.74137        -0.94874
C         47.74293        35.93268        -1.07612
C         46.45696        35.19976        -1.29434
C         47.67942        37.37111        -1.47255
C         46.49430        38.05023        -1.33251
C         47.77081        40.25053        -1.35947
C         46.53254        39.50293        -0.93943
C         47.76479        41.67033        -1.30832
C         46.46802        42.42934        -1.42364
C         47.76023        44.51853        -0.88252
C         46.51580        43.82390        -0.84355
C         47.79379        45.93280        -0.61380
C         46.58426        46.59307        -0.26934
C         47.86637        48.80713        -0.12112
C         46.59811        48.01965         0.10341
C         47.76420        50.28163        -0.27195
C         46.50130        50.91492         0.02040
C         47.69676        53.13119        -0.06821
C         46.39072        52.40588        -0.22972
C         47.72144        54.41490         0.42129
C         46.54899        55.07346         0.85360
C         49.71946        20.67966         2.21932
C         48.77684        21.11490         1.31983
C         50.00242        23.34479         1.23418
C         49.06368        22.38662         0.55636
C         49.99645        24.71463         0.92750
C         48.85950        25.34844         0.26176
C         49.84639        27.62171         0.76738
C         48.81169        26.72564         0.11064
C         50.03431        28.95805         0.07314
C         48.90592        29.54956        -0.57792
C         50.17668        31.65990        -0.76604
C         48.96494        30.91065        -0.95158
C         50.22923        33.04077        -1.09062
C         49.00765        33.71371        -1.66109
C         50.20154        35.86832        -1.48445
C         49.00674        35.19836        -1.43438
C         50.22912        37.31911        -1.77818
C         48.92588        38.09016        -1.79289
C         50.18254        40.27915        -1.90189
C         48.93282        39.55480        -1.66060
C         50.21216        41.70908        -1.56271
C         48.98023        42.39240        -1.35659
C         50.21630        44.52119        -1.20649
C         48.97803        43.82291        -1.16362
C         50.21909        45.95920        -1.10145
C         49.01839        46.65268        -0.78271
C         50.15148        48.81851        -1.05597
C         49.04628        48.10313        -0.68561
C         50.15081        50.32147        -1.14037
C         48.88329        50.99094        -0.65765
C         50.20871        53.05660        -0.25547
C         48.89339        52.50462        -0.74584
C         50.89468        21.42250         2.47511
C         52.22489        23.51332         2.29646
C         51.05998        22.74609         2.00040
C         52.26755        24.89857         1.93418
C         51.13449        25.51589         1.30819
C         52.28636        27.68243         1.37680
C         51.14926        26.92439         1.09288
C         52.16669        29.19819         1.35580
C         51.19043        29.69988         0.31415
C         52.52950        31.78821        -0.02854
C         51.31438        31.04308        -0.16222
C         52.61286        33.12698        -0.50701
C         51.42414        33.77250        -0.97658
C         52.66755        35.90043        -1.23147
C         51.46344        35.18090        -1.28790
C         52.68485        37.33610        -1.49315
C         51.51601        38.03283        -1.67830
C         52.73428        40.23837        -1.56440
C         51.50873        39.49558        -1.91421
C         52.68765        41.67011        -1.48819
C         51.44875        42.39254        -1.50056
C         52.68975        44.53709        -1.38317
C         51.44452        43.82199        -1.35864
C         52.67041        45.98816        -1.38960
C         51.43561        46.66207        -1.28559
C         52.64396        48.80265        -0.86631
C         51.43031        48.15002        -1.49971
C         52.56984        50.15956        -0.39967
C         51.38955        50.91307        -0.49734
C         51.32964        52.30137        -0.13688
C         54.49893        23.61579         3.19527
C         53.38600        22.90592         2.89542
C         54.55222        25.10574         3.04727
C         53.41727        25.67015         2.22538
C         54.69940        27.76047         2.05785
C         53.46855        27.04998         1.89638
C         54.76451        29.20568         1.77442
C         53.51023        29.94019         1.35735
C         54.93245        31.81670         0.50628
C         53.68398        31.19047         0.58198
C         55.04088        33.16569        -0.03649
C         53.84178        33.85279        -0.48033
C         55.12550        35.94912        -0.83868
C         53.89137        35.22080        -0.88059
C         55.18846        37.33846        -1.05362
C         54.00903        38.03615        -1.73089
C         55.17479        40.27779        -1.40974
C         53.92865        39.53162        -1.47505
C         55.12689        41.70882        -1.16237
C         53.90726        42.38945        -1.27454
C         55.18541        44.51767        -1.51716
C         53.89743        43.82916        -1.32788
C         55.16286        46.08826        -1.59684
C         53.88780        46.73499        -1.34037
C         55.08793        48.75968        -0.48714
C         53.85527        48.10517        -0.89251
C         54.96346        50.05986         0.12339
C         53.77409        50.71990         0.17149
C         57.06272        24.89202         2.58702
C         55.88323        25.64499         2.57638
C         57.18568        27.65535         2.06827
C         55.92449        27.03080         2.24541
C         57.27674        29.15610         2.04320
C         56.06019        29.82416         1.45984
C         57.42767        31.72542         0.76288
C         56.13214        31.11390         0.94617
C         57.50187        33.05314         0.15494
C         56.26775        33.80509        -0.11898
C         57.56848        35.97019        -0.15639
C         56.41946        35.17191        -0.75519
C         57.53975        37.39112        -0.22023
C         56.38388        38.05628        -0.78046
C         57.61584        40.27735        -0.52189
C         56.48785        39.48482        -1.05730
C         57.60369        41.69019        -0.56852
C         56.29953        42.44897        -0.58977
C         57.60969        44.58562        -0.84548
C         56.41569        43.85857        -1.10693
C         57.63043        46.01331        -0.89786
C         56.47481        46.85215        -1.43581
C         57.56304        48.82395        -0.35748
C         56.33144        48.15722        -0.67770
C         58.29102        25.48875         2.31293
C         59.63908        27.52059         1.86727
C         58.37193        26.88592         2.09737
C         59.72492        28.86979         1.56611
C         58.58093        29.69098         1.52713
C         59.86206        31.79718         1.19054
C         58.62198        31.05654         1.11347
C         59.92629        33.13186         0.95500
C         58.82002        33.82845         0.28660
C         59.83653        36.07080         0.72287
C         58.73450        35.31317         0.27897
C         59.82571        37.45243         0.63390
C         58.70552        38.13934         0.12885
C         59.91746        40.33571         0.24318
C         58.75237        39.58617        -0.03995
C         59.94876        41.70590         0.05954
C         58.78274        42.42399        -0.30080
C         59.94013        44.61886        -0.06960
C         58.78563        43.88243        -0.39595
C         59.94950        46.00505        -0.11798
C         58.78741        46.71237        -0.50131
C         58.75172        48.15225        -0.36074
O         58.46644        33.17269        -0.97818
O         46.16827        22.48364        -1.66382
O         27.08904        46.36561         1.93874
O         53.99538        30.06843         2.74356
O         41.15885        41.50272         1.20240
O         55.20883        45.25991        -2.79377
O         39.47124        33.31897        -2.85280
O         34.63494        38.05116        -2.25502
O         47.53539        48.32989         1.22362
O         31.42224        34.54468        -2.49365
O         25.79272        35.65525        -1.88244
O         34.88377        41.70612         1.86817
O         44.69683        26.85270        -2.51991
O         37.23397        44.36166        -0.88175
O         49.53174        37.60062        -3.05124
O         41.46060        39.05562        -2.53739
O         42.53663        45.94251         1.90661
O         24.38270        44.29453         1.66541
O         56.16307        39.85400        -2.44244
O         50.89219        39.93984        -3.15281
O         35.47291        39.26216         1.54805
H         35.10313        39.90024         2.20759
O         49.11208        33.56675        -3.13235
H         49.90059        34.07204        -3.42623
O         33.93908        24.91582        -2.16728
H         33.09296        25.35598        -2.43741
O         36.61879        33.62149        -3.03220
H         35.85845        34.09171        -3.43357
O         36.62891        47.79088         2.95543
H         37.28445        47.09153         3.20201
O         55.95889        42.58374         0.86636
H         56.71335        43.04762         1.29113
O         28.22288        27.55518         2.08213
H         29.06562        28.03614         2.22899
O         54.27647        37.89527        -3.16103
H         55.08592        38.42895        -3.34789
O         51.50869        29.53017         2.62882
H         52.23996        29.67227         3.27941
O         47.00547        24.54650         1.45678
H         47.21064        25.42108         1.85452
O         34.19650        46.36113         2.83966
H         34.99632        46.85841         3.15227
O         54.38531        25.65069         4.41443
H         53.49158        25.38806         4.72164
O         46.66567        39.41838         0.54306
H         45.77312        39.24244         0.91180
O         46.56744        30.70371        -3.02530
H         45.81803        30.13200        -3.29957
O         46.49699        33.71263         0.53863
H         47.12987        34.42250         0.82320
O         49.85850        21.92545        -0.62713
H         50.12650        22.72617        -1.12774
O         56.79415        34.93202        -2.15776
H         57.55247        34.29592        -2.13677
O         47.88199        36.03317         0.44733
H         47.25456        36.73192         0.74203
O         49.25142        27.95079         2.07146
H         49.89108        28.56277         2.51841
O         46.04899        52.53878        -1.66990
H         46.90055        52.68500        -2.15470
O         37.50597        18.48214        -1.62826
H         36.67611        18.96472        -1.83130
O         56.88018        47.24808        -2.78518
H         56.61552        46.50728        -3.37886
O         46.30624        42.64525        -2.88017
H         47.10384        43.12008        -3.19879
O         25.15626        31.31508        -1.95380
H         25.79070        31.88194        -2.44289
O         28.98390        25.00627        -1.58534
H         28.87265        24.04348        -1.74254
O         31.42864        30.75052        -2.69794
H         31.41714        31.65821        -3.07179
O         50.25094        50.65314        -2.59803
H         49.55981        50.12612        -3.05600
O         51.57261        48.34157        -2.95098
H         51.59685        49.31505        -3.10594
O         37.80007        33.36802         0.42923
H         37.03287        32.92031         0.84453
O         35.55960        50.12492        -0.74489
H         34.71790        49.76489        -1.09784
O         40.59458        48.46756         2.82619
H         41.50938        48.72508         3.07101
O         48.76764        52.86543        -2.17074
H         49.45406        52.32445        -2.63984
O         38.00222        45.35278         2.58243
H         38.92203        45.07562         2.78811
O         44.14077        20.50668        -2.24659
H         44.92495        20.97039        -2.61692
O         25.74997        29.04601         2.21913
H         26.55602        28.51837         2.44672
O         57.25178        29.57008         3.47823
H         56.36043        29.34385         3.82437
O         36.62342        26.82892         1.31678
H         37.46892        26.43434         1.62109
O         31.38992        26.29281        -2.20785
H         30.50376        25.85360        -2.29418
O         41.72342        21.01721         1.62006
H         40.92584        21.48962         1.94345
O         46.76865        20.52608         2.40314
H         45.93372        20.01378         2.34324
H         22.12314        26.85423         0.92003
H         22.04765        29.29025         0.76872
H         21.98738        31.15168         0.34714
H         21.97018        33.53533        -0.00501
H         22.04091        35.40023         0.53434
H         22.06651        37.82071         0.64693
H         22.01121        39.70837         0.24017
H         22.04422        42.16798         0.20194
H         22.34596        43.89302        -0.95655
H         22.69146        46.16497        -1.79479
H         25.45226        23.47750         0.55489
H         23.32530        24.73600         0.68161
H         26.05084        49.57593        -1.15520
H         24.05087        48.28244        -1.83262
H         27.15330        22.71169         1.34594
H         27.14600        50.69676         0.45395
H         29.26058        21.49644         1.37277
H         29.23835        51.90905         0.84911
H         32.98068        19.29087         1.16010
H         30.90390        20.52886         1.30970
H         32.95243        53.97084         1.59436
H         30.83855        52.79756         1.39984
H         34.66480        18.37198         1.26097
H         34.56985        54.89396         1.52417
H         36.67888        17.08146         0.86641
H         36.65654        56.10485         1.77395
H         40.41960        14.87365         0.39047
H         38.25374        16.04702         0.14516
H         40.44606        58.20570         2.32944
H         38.30313        57.00736         2.20555
H         42.86735        14.89533         0.43569
H         42.91880        58.21973         2.12704
H         44.99670        16.08689         0.27776
H         45.02269        57.05435         1.62359
H         48.57985        18.33789         1.21816
H         46.62655        17.05859         0.45099
H         48.66091        54.98328         0.45669
H         46.63501        56.11788         1.17928
H         49.56852        19.73176         2.75656
H         50.28015        54.13230        -0.04481
H         51.64908        20.98055         3.13917
H         52.24539        52.79512         0.21867
H         55.34441        23.10961         3.68260
H         53.37935        21.82441         3.09030
H         55.85186        50.54199         0.55238
H         53.74101        51.71109         0.64238
H         57.03331        23.81890         2.82023
H         57.55529        49.89103        -0.09578
H         59.21114        24.88725         2.31679
H         60.54776        26.90160         1.87220
H         60.70390        29.28963         1.29296
H         60.73663        31.29480         1.62673
H         60.83905        33.68145         1.22116
H         60.73857        35.57387         1.10100
H         60.72223        38.00111         0.94783
H         60.83259        39.83613         0.58552
H         60.89268        42.23308         0.24755
H         60.85258        44.10332         0.25638
H         60.85014        46.56228         0.17556
H         59.68679        48.67729        -0.11747
