         300
 CSIRO Nanostructure Databank - Neutral Graphene Oxide Data Set
C         30.43078        31.72821         0.95217
C         30.37176        32.99298         1.12519
C         30.47828        36.01350         1.61744
C         30.60541        37.23531         1.84645
C         30.46965        40.36275         1.37133
C         30.37186        41.57103         1.11370
C         32.72739        28.79444         0.35263
C         31.67997        29.46708         0.56085
C         32.87003        31.56337         0.99191
C         31.46314        30.82133         0.82042
C         32.80256        33.05019         0.63329
C         31.48999        33.83080         0.64093
C         32.85901        35.91025         1.31324
C         31.46330        35.34900         0.66390
C         32.88915        37.43335         1.35351
C         31.74242        38.10928         1.76104
C         32.88762        40.37826         1.46959
C         31.64269        39.58358         1.79880
C         32.80069        41.74167         0.78444
C         31.43363        42.40892         0.55441
C         32.67086        44.49142         0.38021
C         31.61445        43.86359         0.47740
C         35.57289        27.28741         0.41226
C         35.36851        28.70248         0.67284
C         34.07123        29.39767         0.54921
C         35.32409        31.59301         0.12378
C         33.97648        30.86992         0.10141
C         35.16624        33.09551        -0.25202
C         34.15918        33.75892         0.75816
C         35.13084        36.06367        -0.01082
C         33.98147        35.25923         0.51937
C         35.17075        37.50778         0.35806
C         34.09347        38.14029         0.93062
C         35.38505        40.38931         0.94071
C         34.16465        39.60034         1.26603
C         35.38533        41.89920         0.95684
C         34.05764        42.59664         0.83717
C         35.27867        44.80196         0.37052
C         34.05075        43.96249         0.09632
C         35.44608        46.03799        -0.41041
C         37.83346        27.28685        -0.34401
C         36.48113        26.71910        -0.20714
C         37.78214        28.77476        -0.28732
C         36.73873        29.47974         0.55671
C         37.83755        31.72476         0.02499
C         36.52089        30.95721         0.14883
C         37.65640        33.18388        -0.36071
C         36.48688        33.85549        -0.24271
C         37.66315        36.10119        -0.12416
C         36.40312        35.36032        -0.58084
C         37.65866        37.42644         0.16743
C         36.40081        38.23734        -0.16654
C         37.80253        40.46078         0.38646
C         36.50955        39.73530         0.20761
C         37.86718        41.91280         0.79216
C         36.68488        42.60868         0.71372
C         37.91913        44.76355         0.08709
C         36.63206        44.08423         0.53939
C         37.73476        45.86300        -1.38784
C         36.48927        46.48367        -0.90581
C         40.22512        24.49038        -1.28297
C         39.17887        25.13814        -1.17880
C         40.26944        27.30168        -1.37561
C         39.03237        26.56224        -0.82749
C         40.29101        28.77603        -0.82998
C         38.84294        29.48035        -1.09561
C         40.15146        31.76505        -1.07738
C         38.86645        31.01570        -0.88429
C         40.21963        33.23480        -0.74989
C         38.88130        34.00167        -0.73401
C         40.21362        36.04541        -0.00627
C         38.88861        35.25211         0.16965
C         40.17539        37.34914         0.76954
C         38.87544        38.11676         0.70895
C         40.29144        40.30600         0.60167
C         38.98882        39.61774         0.66731
C         40.34764        41.60133         0.17780
C         39.22872        42.56098         0.56816
C         40.36338        44.54522        -0.45889
C         39.05264        43.78727        -0.33957
C         40.36606        45.84817        -1.20221
C         39.01011        46.70826        -1.48362
C         40.33485        47.51744        -3.46128
C         39.30609        47.26622        -2.83055
C         42.90921        24.49120        -1.26576
C         41.56584        25.00581        -0.98099
C         42.86256        27.27442        -1.31428
C         41.57028        26.54409        -1.00076
C         42.82169        28.77216        -1.49284
C         41.48953        29.53628        -1.42508
C         42.75995        31.75778        -0.99963
C         41.46288        31.03986        -1.34661
C         42.74360        33.03131        -0.12846
C         41.49954        33.88044        -0.33925
C         42.75121        35.95691         0.53224
C         41.41560        35.17480         0.46788
C         42.75574        37.50212         0.48553
C         41.45636        38.07811         1.00468
C         42.71078        40.36674         1.42054
C         41.46229        39.58008         1.14654
C         42.67160        41.94831         1.41513
C         41.40613        42.55945         0.68837
C         42.82082        44.39435        -0.44959
C         41.63028        43.77428        -0.20790
C         42.91051        45.72300        -1.22177
C         41.62833        46.03502        -2.01107
C         43.00579        47.29308        -3.60177
C         41.63320        46.86447        -3.29721
C         43.95186        25.14252        -1.21189
C         45.42425        27.22772        -1.63769
C         44.23353        26.58114        -0.90588
C         45.43391        28.78263        -1.27742
C         44.12717        29.53224        -1.32925
C         45.20696        31.58924        -0.13410
C         44.03769        30.97315        -0.87136
C         45.24725        33.10020        -0.04555
C         44.01301        33.89959        -0.45852
C         45.30177        36.04848         0.12501
C         44.03257        35.23855         0.26515
C         45.27601        37.42983         0.72144
C         43.98160        38.04298         1.30922
C         45.34187        40.37020         1.35168
C         44.03743        39.61981         1.44155
C         45.34867        41.87727         1.14309
C         44.02143        42.63266         0.98854
C         45.43324        44.65939        -0.08143
C         44.07589        43.94950         0.23013
C         45.40577        45.62511        -1.28033
C         44.20120        45.67628        -2.14925
C         44.02420        46.82547        -3.09080
C         47.72393        27.31642        -0.59498
C         46.75732        26.76946        -1.12488
C         47.69566        28.59169         0.14793
C         46.47900        29.35110        -0.32680
C         47.83652        31.51149        -0.30531
C         46.48818        30.83026        -0.02846
C         47.84472        33.03876        -0.13354
C         46.55439        33.80610         0.08270
C         47.77327        35.88314         0.66369
C         46.63072        35.31032        -0.19082
C         47.82038        37.38846         0.71506
C         46.55533        38.10333         1.19986
C         47.87802        40.24150         0.69426
C         46.48805        39.57823         0.67395
C         47.90409        41.70611         0.49598
C         46.61735        42.48360         0.59874
C         47.98381        44.40897        -0.36473
C         46.60159        43.65263        -0.35902
C         47.79983        45.69166        -0.96109
C         46.69047        46.06404        -1.50021
C         50.18516        28.73903         0.75053
C         48.83190        29.34441         0.84656
C         50.27022        31.43868         0.36383
C         49.05617        30.82625         0.32227
C         50.47648        32.94872         0.18315
C         49.13993        33.72850         0.17416
C         50.29970        35.78365         1.24999
C         49.02600        35.07949         0.85073
C         50.36132        37.32670         1.21690
C         49.11616        38.09943         0.88943
C         50.38001        40.26384         0.90181
C         49.08753        39.55428         1.35395
C         50.39767        41.76812         1.12741
C         49.13173        42.51170         0.81775
C         50.47210        44.38252         0.19514
C         49.12101        43.88987         0.21106
C         51.30828        29.25994         0.79371
C         52.89616        32.12326         2.86862
C         51.59781        30.65107         0.34603
C         52.28217        32.77986         1.97668
C         51.48660        33.54336         1.16992
C         52.60247        35.86695         1.44395
C         51.56761        34.98418         1.21045
C         52.71122        37.14208         1.30509
C         51.67217        38.01738         1.06364
C         52.81017        40.36728         0.77990
C         51.66851        39.44824         0.69520
C         52.86302        41.59976         0.72511
C         51.99704        42.68367         1.20081
C         51.57373        43.83757         0.36908
O         48.00271        35.15582         1.89232
O         41.36434        30.33963        -2.62311
O         49.59242        42.28286         2.21306
O         39.14267        31.65609        -2.15739
O         35.20235        39.83780         2.28275
O         48.61028        33.69931        -1.19176
O         40.55866        45.83792         0.22844
O         35.92303        44.79171         1.63832
O         40.81169        37.34732         2.08973
O         41.83271        39.93465         2.52026
O         44.83493        39.95628         2.63235
O         48.14843        40.81810        -0.62671
O         48.52434        37.93932        -0.43606
O         45.21558        37.22804        -0.72599
O         38.70550        38.89296         1.92738
O         45.78003        33.51028         1.25694
O         41.11838        33.91523        -1.72471
O         34.68472        33.17111        -1.55508
O         50.79944        39.82381        -0.41411
O         42.84215        27.86519        -2.64176
O         52.60274        31.08543        -0.13199
O         33.96184        35.70937        -0.84675
O         40.23926        42.99397         1.63958
O         32.08971        33.32549        -0.59339
O         43.52989        35.33454         1.61159
O         32.14823        41.75004        -0.53170
O         45.08934        29.53385        -2.45503
O         34.70311        42.49600         2.11528
O         43.97938        43.90866         1.68261
O         32.38471        40.28825         2.83257
O         45.66298        31.04775         1.14190
O         37.12141        40.44386        -0.92676
O         43.72700        31.78547        -2.07086
O         38.84612        26.74267         0.60494
O         46.48047        28.61146         0.94287
O         41.55002        45.41255        -3.34556
O         41.57532        25.79206         0.24756
O         46.26413        42.64656         1.99262
O         34.63936        29.13744         1.84761
O         50.19128        36.57551         2.45833
O         32.90355        35.41325         2.66458
H         32.18729        35.85187         3.17636
O         51.10419        33.18775        -1.09079
H         50.40086        33.22506        -1.77796
O         42.81879        32.57851         1.22134
H         42.70745        33.35587         1.82256
O         38.72001        34.79558         1.52550
H         38.85203        35.54990         2.13816
O         46.91122        35.50842        -1.57444
H         46.64234        36.42401        -1.81408
O         43.12827        46.76026        -0.26718
H         42.37540        46.75270         0.36846
O         44.39653        26.74867         0.48287
H         43.69443        26.24381         0.95055
O         52.23273        43.01432         2.50562
H         51.57513        43.66994         2.81561
O         46.03707        39.55166        -0.69054
H         46.79900        39.78178        -1.27592
O         31.27732        35.84203        -0.61974
H         31.46488        35.13317        -1.27481
O         38.49627        31.74881         1.31280
H         37.96608        32.29489         1.93110
O         40.36821        36.45054        -1.36669
H         40.07928        35.70866        -1.96041
O         43.86364        37.58711         2.66099
H         43.14131        38.08767         3.10208
O         48.48382        29.52480         2.20742
H         47.54644        29.24281         2.33297
O         36.28197        35.41791        -2.00493
H         35.54556        34.78938        -2.22941
O         44.14897        44.46419        -2.90460
H         43.33966        44.50916        -3.47205
O         33.23978        31.39777         2.34778
H         32.60327        31.86122         2.92970
O         40.57242        28.77347         0.56501
H         39.97450        28.11822         1.01183
O         42.56471        42.31827         2.78526
H         41.85874        41.77105         3.19622
O         37.52442        45.18422        -2.57309
H         36.60393        44.85693        -2.62550
O         38.32610        45.62188         1.12293
H         37.55056        45.75769         1.71945
O         38.97455        47.74368        -0.53317
H         38.91477        47.32753         0.35982
O         44.06041        34.30204        -1.82926
H         43.99830        33.50619        -2.41042
O         41.17274        34.71517         1.81074
H         41.26597        35.48582         2.41929
O         38.69919        34.46961        -2.08364
H         38.68691        33.68076        -2.67163
O         46.64221        38.04855         2.61806
H         45.74460        38.14534         3.01827
O         38.78476        43.25193        -1.64903
H         38.14762        42.50776        -1.58159
O         34.72905        33.56097         2.05712
H         34.23562        34.11438         2.70717
O         46.42181        43.04257        -1.63970
H         46.27031        43.73520        -2.32130
O         42.78582        37.99277        -0.85944
H         43.61674        37.68576        -1.30075
O         47.99025        31.24025        -1.72411
H         48.51733        31.97433        -2.11771
O         40.17836        27.30158        -2.79533
H         41.03389        27.61927        -3.17329
O         45.82134        45.42354         1.05734
H         45.40068        45.02001         1.85478
O         37.25142        29.50423         1.90829
H         36.48822        29.65957         2.51050
O         45.28837        27.04864        -3.02010
H         45.23391        27.93026        -3.45689
O         36.21845        38.18905        -1.59379
H         36.89688        38.76063        -2.01508
O         34.11572        43.65937        -1.29705
H         33.30082        43.15941        -1.54265
O         33.53998        30.86177        -1.24746
H         33.80571        31.74429        -1.65891
O         48.97524        39.60228         2.76886
H         49.01979        40.54251         3.05982
O         38.50570        29.23620        -2.46624
H         38.94424        29.93518        -3.00784
