         429
 CSIRO Nanostructure Databank - Neutral Graphene Oxide Data Set
C          1.31505         3.28723         0.57429
C          1.40565         4.55645         0.08326
C          2.47116         2.49123         0.80342
C          2.73522         5.23707        -0.09960
C          1.62096         7.15580        -1.44311
C          1.86888         8.43864        -2.12800
C          2.76134         6.20427        -1.27738
C          2.99992         8.68915        -2.81304
C          1.92517        10.86079        -3.61221
C          1.80227        12.00680        -2.93371
C          3.16297         9.99981        -3.58612
C          2.82214        12.44341        -1.90711
C          1.54625        14.57342        -1.44264
C          1.45568        15.88381        -0.98031
C          2.78375        13.91863        -1.55825
C          2.60963        16.55409        -0.52898
C          2.54796        17.90786        -0.00375
C          3.74370         2.94987         0.42656
C          3.89579         4.26952        -0.14236
C          4.88608         2.11871         0.54224
C          5.11508         4.68455        -0.65487
C          4.09348         6.62244        -1.79208
C          4.17324         7.70932        -2.86366
C          5.21034         5.92720        -1.42058
C          5.53944         8.43996        -2.80111
C          4.32588        10.71917        -2.92026
C          4.20149        11.92064        -2.25965
C          5.60039        10.00833        -2.90348
C          5.38929        12.64729        -1.88779
C          3.96101        14.59683        -1.16321
C          3.85211        15.89275        -0.60796
C          5.28857        13.99233        -1.36426
C          5.04576        16.49340         0.08601
C          3.66329        18.58637         0.39012
C          4.97131        17.97750         0.35827
C          6.15305         2.54657         0.12066
C          6.29129         3.84774        -0.52105
C          7.28758         1.73249         0.37915
C          7.55316         4.31032        -0.90348
C          6.54477         6.30640        -2.02361
C          6.68104         7.79881        -2.17041
C          7.74111         5.65773        -1.38727
C          7.88475         8.47736        -1.94164
C          6.76662        10.65389        -2.31671
C          6.65103        12.03836        -2.02467
C          7.94434         9.91837        -2.01755
C          7.89354        12.82148        -1.94908
C          6.43443        14.72247        -1.10251
C          6.33182        16.10106        -0.59377
C          7.78332        14.26709        -1.48821
C          7.57663        16.81889        -0.17761
C          6.11576        18.65956         0.69524
C          7.43486        18.06903         0.61216
C          8.58860         2.18621         0.11558
C          8.72899         3.46568        -0.62240
C          9.74374         1.47330         0.47056
C         10.06580         4.12067        -0.62709
C          8.96770         6.31693        -1.37856
C          9.08396         7.75934        -1.54652
C         10.19533         5.55065        -1.07226
C         10.27359         8.46256        -1.26514
C          9.14737        10.59992        -1.66000
C          9.19123        12.06717        -1.85902
C         10.31965         9.90140        -1.30892
C         10.44001        12.82595        -1.50115
C          8.97924        14.90330        -0.87480
C          8.85923        16.08438        -0.20253
C         10.34813        14.35522        -1.30831
C          9.99299        16.63371         0.63263
C          8.56110        18.71085         1.05883
C          9.87564        18.10644         0.99909
C         11.04003         2.08907         0.51901
C         11.07965         3.59274         0.35368
C         12.14822         1.44202         1.00264
C         12.44026         4.22510         0.18684
C         11.49727         6.25815        -0.87677
C         11.61833         7.75211        -1.18527
C         12.55367         5.55001        -0.10634
C         12.68947         8.47464        -0.39242
C         11.54430        10.62723        -0.94920
C         11.58743        12.05078        -0.95327
C         12.69561         9.90704        -0.47728
C         12.73517        12.76628        -0.52449
C         11.48755        14.90427        -0.48654
C         11.33741        16.30307        -0.00326
C         12.66802        14.22005        -0.35270
C         12.51366        17.03089         0.53874
C         10.97822        18.78645         1.42581
C         12.29810        18.08496         1.60770
C         13.39125         2.20397         1.41239
C         13.65624         3.39651         0.48945
C         14.63261         1.29142         1.44751
C         14.83227         4.20703         0.97169
C         13.60509         6.35553         0.60932
C         13.76812         7.78147         0.15416
C         14.87553         5.59627         0.87166
C         14.94288         8.46866         0.60726
C         13.85233        10.60900        -0.02700
C         13.88720        12.04286        -0.07737
C         14.97859         9.88509         0.48307
C         15.03693        12.71540         0.42446
C         13.89937        14.97691         0.00184
C         13.82749        16.35281         0.56121
C         15.14910        14.18198         0.33898
C         14.88577        17.00089         1.13583
C         13.51680        18.96369         1.71694
C         14.76515        18.40455         1.55500
C         15.94496         2.04947         1.54313
C         15.97051         3.48055         1.40490
C         17.13235         1.37790         1.75317
C         17.15470         4.19947         1.71564
C         16.02900         6.32318         1.29567
C         16.05776         7.77868         1.18714
C         17.14998         5.62039         1.74776
C         17.21580         8.47421         1.60943
C         16.11992        10.57277         0.98601
C         16.09802        11.99655         1.01634
C         17.23356         9.89545         1.54113
C         17.12104        12.68151         1.74105
C         16.09445        14.85581         1.24022
C         16.25247        16.35763         1.13117
C         16.82007        14.04257         2.06238
C         17.30577        17.07707         1.96965
C         15.98765        19.14941         1.71500
C         17.23509        18.53490         1.85423
C         18.38559         2.07591         1.81010
C         18.38395         3.49198         1.87337
C         19.62375         1.38457         1.75324
C         19.61913         4.23431         1.84984
C         18.32450         6.26349         2.46363
C         18.23776         7.82444         2.52299
C         19.61863         5.64125         1.97881
C         19.66475         8.51075         2.55634
C         18.41078        10.64722         1.94555
C         18.36978        12.08250         2.05857
C         19.62014         9.96909         2.15594
C         19.59624        12.82625         2.33443
C         18.57278        15.08970         2.75478
C         18.46160        16.50604         2.47222
C         19.65915        14.27531         2.50373
C         19.70811        17.28666         2.57833
C         18.43969        19.29857         1.91475
C         19.68544        18.69010         2.10892
C         20.83062         2.07888         1.59325
C         20.83048         3.53037         1.59190
C         22.06974         1.38822         1.48173
C         22.01363         4.25430         1.36548
C         20.82351         6.36795         1.82148
C         20.83838         7.79211         1.93739
C         22.02715         5.66066         1.47691
C         22.02275         8.52057         1.69335
C         20.84201        10.69480         2.05808
C         20.82464        12.12954         2.14138
C         22.04832         9.96151         1.80504
C         22.07575        12.85691         1.93758
C         21.00715        14.94905         2.75752
C         21.00572        16.49118         2.58234
C         22.13657        14.23632         2.07901
C         22.18116        17.18585         1.99837
C         20.91710        19.34570         1.92951
C         22.13796        18.63173         1.83928
C         23.26851         2.06480         1.21925
C         23.21369         3.52516         0.82658
C         24.49453         1.39404         1.14529
C         24.50961         4.25787         1.05124
C         23.25724         6.39340         1.31769
C         23.24528         7.80633         1.40152
C         24.49516         5.67759         1.15332
C         24.47867         8.52508         1.26890
C         23.25922        10.67668         1.52326
C         23.25600        12.10766         1.52547
C         24.47248         9.97029         1.26125
C         24.43031        12.79062         1.13898
C         23.36204        15.00892         1.81703
C         23.29895        16.47666         1.60626
C         24.52733        14.26376         1.25478
C         24.46551        17.15570         1.07091
C         23.32553        19.30613         1.49128
C         24.49489        18.61126         1.11495
C         25.72339         2.09067         0.94622
C         25.71460         3.54737         0.96121
C         26.93096         1.40221         0.81851
C         26.95934         4.25070         0.89771
C         25.73000         6.39495         1.13195
C         25.69483         7.81702         1.17597
C         26.96708         5.67414         0.98125
C         26.96019         8.57253         1.17984
C         25.67157        10.69007         0.96943
C         25.61627        12.09663         0.84734
C         26.93887        10.00629         0.84788
C         26.84238        12.86147         0.52365
C         25.48742        14.99373         0.36859
C         25.50805        16.46544         0.46247
C         26.70609        14.22923        -0.07809
C         26.63808        17.19668        -0.13229
C         25.67665        19.29504         0.76914
C         26.80182        18.62205         0.23425
C         28.17578         2.08909         0.68173
C         28.17470         3.52655         0.72207
C         29.39051         1.40270         0.51602
C         29.41052         4.22354         0.58730
C         28.21035         6.35857         0.82858
C         28.25689         7.82458         0.97788
C         29.39681         5.66327         0.58410
C         29.42836         8.55381         0.45882
C         28.12187        10.65635         0.50985
C         28.12139        12.12534         0.33513
C         29.37677         9.97527         0.31677
C         29.13979        12.72988        -0.60660
C         27.96298        14.94203        -0.44139
C         27.90785        16.42091        -0.60154
C         29.13315        14.24607        -0.57747
C         29.16765        17.16674        -0.60321
C         28.02331        19.26340         0.03024
C         29.21202        18.55600        -0.34270
C         30.63188         2.09393         0.42092
C         30.62700         3.51922         0.48016
C         31.86044         1.40249         0.25840
C         31.92597         4.27893         0.59149
C         30.60879         6.37476         0.22050
C         30.55993         7.80922         0.10872
C         31.79910         5.66947         0.02833
C         31.82322         8.51771        -0.08033
C         30.53756        10.72578        -0.07186
C         30.49787        12.08830        -0.42722
C         31.84002        10.04508        -0.11460
C         31.69033        12.80543        -0.71835
C         30.38335        14.92630        -0.99239
C         30.39836        16.46085        -0.96016
C         31.67926        14.22509        -0.90029
C         31.69295        17.13120        -0.81326
C         30.46515        19.22984        -0.38261
C         31.69350        18.54761        -0.57600
C         33.10435         2.08914         0.09952
C         33.12071         3.53263         0.07275
C         34.30784         1.39349        -0.05493
C         34.28196         4.22690        -0.35667
C         32.92798         6.28178        -0.66659
C         32.92341         7.81823        -0.76638
C         34.23715         5.60685        -0.73840
C         34.16910         8.52987        -1.00229
C         32.99687        10.70098        -0.73039
C         32.93804        12.10258        -0.88868
C         34.18275         9.93279        -1.02520
C         34.11958        12.83968        -1.19331
C         32.88230        14.95287        -1.00926
C         32.89385        16.40430        -0.92299
C         34.13268        14.24601        -1.11553
C         34.14150        17.10286        -0.83992
C         32.92960        19.23008        -0.54184
C         34.15263        18.53410        -0.68060
C         35.60168         2.14484         0.08219
C         35.51653         3.53135        -0.51282
C         36.82839         1.37421        -0.30126
C         36.62969         4.18090        -1.05430
C         35.38223         6.28031        -1.19766
C         35.30130         7.73696        -1.51085
C         36.61828         5.58025        -1.35639
C         36.58191         8.49690        -1.79420
C         35.40392        10.62764        -1.34257
C         35.35437        12.09696        -1.46542
C         36.61380         9.94802        -1.51595
C         36.65900        12.85081        -1.34329
C         35.38456        14.96792        -1.04349
C         35.37754        16.39382        -0.88315
C         36.61545        14.27970        -0.99895
C         36.61278        17.09590        -0.79611
C         35.38897        19.22317        -0.64212
C         36.61940        18.53442        -0.71092
C         37.91725         1.97937        -0.87190
C         37.82130         3.37215        -1.37267
C         39.17955         1.30672        -1.00721
C         39.11567         4.11813        -1.70636
C         37.86785         6.26021        -1.69790
C         37.86919         7.74148        -1.90232
C         39.07881         5.59327        -1.73860
C         39.16012         8.51512        -1.71502
C         37.87679        10.61372        -1.30462
C         37.83278        12.04332        -0.90786
C         39.09482         9.94070        -1.29276
C         39.07596        12.77939        -0.52088
C         37.84615        14.96096        -0.80043
C         37.84896        16.38883        -0.78959
C         39.08998        14.25113        -0.72854
C         39.09134        17.08725        -0.79643
C         37.85801        19.21684        -0.68819
C         39.08671        18.52179        -0.75773
C         40.35254         2.00998        -1.23450
C         40.36982         3.40620        -1.43857
C         41.57341         4.17117        -1.33167
C         40.40318         6.31193        -1.99987
C         40.38683         7.73548        -1.45027
C         41.59677         5.51581        -1.53268
C         41.45729         8.37148        -0.89337
C         40.31070        10.55815        -0.80760
C         40.38784        12.02188        -0.35234
C         41.42140         9.77491        -0.59369
C         41.53325        12.78367        -0.97657
C         40.30439        14.92301        -0.87806
C         40.32487        16.37140        -0.89108
C         41.50565        14.12735        -1.10501
C         41.52908        17.10706        -0.93659
C         40.32789        19.21250        -0.79599
C         41.52073        18.50639        -0.88629
O         24.54642        14.67056         2.65952
O         32.22350         9.28459         1.09554
O         17.60146         8.17897         3.74514
O         38.27505         3.50169        -2.74595
O          1.74130         5.98238        -2.29522
O         17.38359        14.53604         3.23466
O         14.96471        14.77259        -0.99616
O         27.88416        12.86407         1.57324
O         25.57267        14.40100        -0.97529
O         36.11610        12.55684        -2.65377
O         32.51403         6.98814        -1.89158
O         35.67487         8.11606        -2.88132
O         26.89185        16.90303        -1.53899
O         38.61842         8.22847        -3.06777
O         20.49873        17.12784         3.80656
O         30.25191        15.69408        -2.22725
O         10.15636        12.45371        -2.89406
O          7.92203        13.92056        -2.91149
O          5.88219         9.13355        -4.03417
O         11.97796        17.35495        -0.78487
O         27.83919         8.26123         2.32378
O          9.69327         3.28123        -1.74347
O         11.20668         5.56746        -2.15670
O         38.11781        12.33229         0.51459
O          6.95193        17.04503        -1.50878
O         16.80473        16.57325        -0.21478
H         16.19601        16.11557        -0.85086
O         13.00312         6.52488         1.95898
H         13.69087         6.92436         2.53530
O         13.15012         2.72871         2.73963
H         13.35397         1.99379         3.36226
O         40.67512        11.98856         1.07354
H         39.80610        11.90416         1.52850
O          2.45974        11.76404        -0.65309
H          2.36984        10.80731        -0.85104
O          2.93949         6.08803         1.08689
H          2.96079         5.49859         1.87061
O          9.95403        15.89059         1.88929
H         10.65796        16.27280         2.47378
O         14.47179         0.42963         2.58505
H         15.32674        -0.01003         2.77085
O         35.74869         2.36392         1.54745
H         34.93031         2.81904         1.84792
O         12.13429         7.86474        -2.55035
H         11.75009         7.10743        -3.05452
O          4.12915         7.05398        -4.15186
H          4.89065         6.42113        -4.17450
O          3.45587         9.70903        -4.95890
H          4.12650         8.98609        -4.99247
O          5.11498        15.83670         1.39872
H          4.25673        15.98322         1.84978
O         40.56311         6.42967        -3.44267
H         39.83693         7.02290        -3.76029
O         21.23718        14.70468         4.17824
H         20.83311        15.46053         4.66651
O         18.21827         5.80132         3.83712
H         17.81222         6.58407         4.31290
O         10.54478        14.96052        -2.60975
H         10.00495        14.43385        -3.24814
O         12.18615        17.31464         2.87206
H         12.16451        17.95946         3.61112
O         20.01522         8.52626         3.96947
H         19.12127         8.51735         4.42613
O         10.64829         4.11424         1.65716
H         11.35891         3.88830         2.30380
O          6.50538         5.77252        -3.40654
H          7.38208         5.94108        -3.81513
O         28.68890        12.35065        -1.94360
H         29.22209        12.84680        -2.60077
O         32.17731         4.43922         2.05246
H         31.40339         4.91085         2.43036
O         23.02639         3.52099        -0.63953
H         23.78020         3.02643        -1.02657
O         14.03076         2.80372        -0.79448
H         14.04117         3.51446        -1.47019
H          0.32632         2.84946         0.77517
H          0.49092         5.13998        -0.09087
H          2.36070         1.47584         1.20855
H          0.77226         7.12311        -0.72848
H          1.06141         9.18981        -2.11992
H          1.14562        10.56032        -4.32844
H          0.89000        12.60891        -3.05939
H          0.62145        14.04649        -1.71459
H          0.47753        16.38201        -0.92148
H          1.56553        18.40134         0.02917
H          4.77828         1.12279         0.99711
H          3.58284        19.63228         0.72275
H          7.14051         0.76848         0.88914
H          6.04234        19.70682         1.02953
H          9.63762         0.44847         0.85955
H          8.47276        19.70166         1.53164
H         12.09318         0.36767         1.24078
H         10.88235        19.83329         1.75589
H         14.64483         0.66500         0.50834
H         13.40944        20.01925         2.00918
H         17.14442         0.27758         1.81302
H         15.92586        20.24703         1.76880
H         19.62837         0.28404         1.74735
H         18.39401        20.37555         1.69324
H         22.08684         0.29681         1.62702
H         20.92200        20.42152         1.69860
H         24.52248         0.30250         1.28668
H         23.32158        20.40519         1.44611
H         26.92677         0.30195         0.82060
H         25.72748        20.38445         0.91284
H         29.38653         0.30337         0.47158
H         28.10800        20.33404         0.26722
H         31.85759         0.30273         0.23691
H         30.48604        20.31514        -0.20632
H         34.31622         0.29408        -0.01227
H         32.94224        20.31896        -0.38960
H         36.90742         0.33464         0.05284
H         35.38862        20.31867        -0.54431
H         39.22657         0.23276        -0.77636
H         37.86473        20.31580        -0.63661
H         41.31465         1.48013        -1.17020
H         42.50315         3.64220        -1.07182
H         42.56459         6.03489        -1.48672
H         42.39264         7.83301        -0.68839
H         42.32443        10.23279        -0.16644
H         42.45878        12.23307        -1.20149
H         42.40530        14.64325        -1.47100
H         42.49316        16.58450        -0.99687
H         40.33421        20.31128        -0.76260
H         42.47507        19.05059        -0.91720
