         284
 CSIRO Nanostructure Databank - Neutral Graphene Oxide Data Set
C        -11.28629         0.62516        -0.29102
C        -10.08876         1.42778        -0.04753
C         -8.77100         0.68809        -0.16640
C         -7.61435         1.42544         0.53782
C         -6.33490         0.69328         0.76621
C         -5.08707         1.56186         1.10494
C         -3.76097         0.77058         1.19031
C         -2.46532         1.54290         1.22162
C         -1.15962         0.78805         1.05560
C          0.10487         1.51978         0.73500
C          1.34007         0.76423         0.36060
C          2.63558         1.49932         0.63779
C          3.85789         0.61175         0.35140
C          5.15784         1.33116         0.44944
C          6.36843         0.60482         0.90207
C          7.57543         1.35128         0.87068
C          8.70817         0.72401         0.12761
C         10.08348         1.36724         0.35012
C         11.01849         0.65703        -0.63619
C        -10.07484         2.78902        -0.03225
C         -8.78492         3.49658        -0.41475
C         -7.55669         2.94468         0.36248
C         -6.23581         3.40377        -0.38708
C         -4.94213         2.73852         0.13867
C         -3.65134         3.50737         0.12296
C         -2.51199         3.11139         1.07848
C         -1.15212         3.77877         0.69297
C          0.12530         3.00510         0.51512
C          1.33888         3.58677        -0.18979
C          2.65574         2.74742        -0.25800
C          3.93553         3.59582        -0.07821
C          5.17859         2.83468         0.37284
C          6.27578         3.36240         1.29294
C          7.59968         2.74749         1.00178
C          8.78813         3.52901         0.70949
C          9.92770         2.88856         0.27686
C         -8.74386         4.99991        -0.33748
C         -7.53310         5.69333        -0.33672
C         -6.20295         4.96185        -0.07271
C         -4.97465         5.57804        -0.77008
C         -3.66336         4.91648        -0.45685
C         -2.54927         5.88343        -0.03367
C         -1.18323         5.23605         0.23732
C          0.09880         5.88353        -0.19019
C          1.36036         5.07095        -0.37153
C          2.62801         5.86942        -0.06484
C          3.94340         5.09306        -0.19352
C          5.18664         5.89183         0.18945
C          6.55775         5.28218        -0.24574
C          7.69053         5.91808         0.48926
C          8.80399         5.03052         1.06358
C         -7.49908         7.10056        -0.32175
C         -6.28868         7.84101        -0.70008
C         -5.05204         7.06216        -1.03755
C         -3.75240         7.79871        -1.26887
C         -2.47825         7.10837        -0.94251
C         -1.20033         7.89324        -1.09025
C          0.10000         7.20066        -0.91936
C          1.40237         7.96366        -1.01447
C          2.68363         7.22589        -0.78069
C          3.96292         8.02490        -0.69096
C          5.23993         7.29635        -0.40687
C          6.48067         8.04708         0.03158
C          7.59217         7.26075         0.67411
C         -6.08787         9.29001        -0.44853
C         -4.95614         9.93984        -0.77540
C         -3.77290         9.31539        -1.49948
C         -2.45749         9.99291        -1.08619
C         -1.26265         9.37149        -0.98548
C          0.00355        10.05091        -0.46718
C          1.36042         9.51006        -1.01560
C          2.52909        10.07239        -0.20619
C          3.86849         9.52676        -0.38813
C          5.08444        10.12549         0.21535
C          6.26641         9.47935         0.35533
C        -11.28741        -0.72653        -0.34141
C        -10.18468        -1.54174         0.29004
C         -8.84783        -0.77713         0.32143
C         -7.53339        -1.48366         0.13859
C         -6.22743        -0.66634         0.04056
C         -5.01554        -1.46853         0.52104
C         -3.76895        -0.72335         0.90901
C         -2.46684        -1.35735         0.48836
C         -1.17690        -0.67097         0.72623
C         -0.02748        -1.36196         0.51613
C          1.30220        -0.70326         0.49686
C          2.48043        -1.39794         1.17150
C          3.82154        -0.83696         0.70111
C          5.05997        -1.49537         1.29855
C          6.35749        -0.84151         0.83180
C          7.50171        -1.54346         0.54133
C          8.78494        -0.82107         0.20832
C          9.47194        -1.32430        -1.09226
C         10.79523        -0.56271        -1.17316
C        -10.06290        -3.01882        -0.06723
C         -8.84431        -3.66997        -0.20848
C         -7.72457        -2.76328        -0.62582
C         -6.05578        -3.74900         0.74705
C         -4.94332        -2.92189         0.02038
C         -3.65785        -3.62368         0.45290
C         -2.43002        -2.82638         0.19497
C         -1.16649        -3.55887        -0.02895
C          0.04373        -2.67023        -0.24967
C          1.27233        -3.46518         0.19032
C          2.42504        -2.91888         0.97777
C          3.68909        -3.76003         1.33658
C          5.04882        -3.03275         1.19704
C          6.31176        -3.78960         0.87049
C          7.62491        -3.06014         0.55786
C          8.36165        -3.54073        -0.69216
C          9.41207        -2.84518        -1.18989
C         -8.66100        -5.08406        -0.30141
C         -7.41394        -5.79595        -0.26827
C         -6.17866        -5.25269         0.45356
C         -4.85262        -5.80090        -0.07091
C         -3.59425        -5.11469         0.39709
C         -2.24547        -5.80505         0.18140
C         -1.12967        -4.90038        -0.28043
C          0.12625        -5.46097        -0.85165
C          1.41831        -4.74783        -0.55788
C          2.63188        -5.58533        -0.29842
C          3.70049        -5.15633         0.67059
C          4.97176        -5.99277         0.74295
C          6.38221        -5.33375         0.68492
C          7.06640        -5.76938        -0.61800
C          7.84792        -4.76380        -1.43136
C         -7.37018        -7.14929        -0.56985
C         -6.11579        -7.99399        -0.73948
C         -4.81918        -7.25450        -0.37930
C         -3.62907        -7.99752         0.17702
C         -2.26553        -7.33196         0.12575
C         -1.12987        -8.28291        -0.03687
C          0.20713        -6.88602        -1.33520
C          1.56663        -7.11317        -2.00971
C          2.79026        -6.79968        -1.18306
C          3.78350        -7.81764        -0.70278
C          4.89483        -7.40115         0.24386
C          6.24321        -8.06779        -0.11065
C          7.01391        -7.06964        -0.97510
C         -6.16455        -9.40103        -0.17898
C         -5.06837       -10.10737         0.14566
C         -3.72955        -9.48519         0.35439
C         -2.48963       -10.27975         0.31099
C         -1.23401        -9.68670         0.16486
C          0.00390       -10.49411         0.08854
C          1.25861       -10.03314         0.08093
C          2.55076        -9.78216         0.21938
C          3.49761        -9.31542        -0.89501
C          4.84070       -10.02657        -0.94522
C          6.02521        -9.43446        -0.72908
O          2.14229         7.33068        -2.11761
O          1.41113        -0.06104        -0.82369
O          5.94157        -3.51267         2.24761
O         -7.58323         3.53995         1.64493
H         -6.86162         3.13595         2.19646
O          6.27902         7.60141        -1.36003
O         -3.84770        -8.53799         1.51000
O          4.74248        -7.12645         1.64821
O         -7.31012         0.88902         1.83798
O         -6.54239        -3.33518         1.78356
H         -6.52316        -5.14706         2.40486
O         -8.42635         0.62184        -1.54419
O          6.03123         4.01794         2.29803
O          6.70541         4.48265        -1.14525
O          9.70644        -1.15765         1.28033
H          9.51283        -2.08149         1.59126
O         -3.08988         1.07065         2.45049
O         -6.28614        -5.86232         1.76639
O          7.21908        -5.76732         1.73581
O         -5.95563         5.09311         1.27808
O         -0.18041         3.67447         1.77689
O          2.57412        -5.96447         1.12485
O         -4.60176        -1.39675         1.90593
O         -0.50582         7.28070        -2.23904
O          1.28183        -3.55672         1.63969
O          1.17603         4.20211        -1.51314
O         -3.93883         2.49280        -0.89176
O          4.97379        -1.20541         2.72159
H          5.53595        -1.88450         3.17026
O         -1.94016        -6.57749         1.37730
O         -3.04346         7.02594        -2.28675
O         -0.37960         6.05756         1.17319
O          1.58716        -7.41770        -3.18644
O         -5.97182         7.40575        -2.10544
O         -7.25249        -2.91848        -1.74547
O          3.86026        -0.42369        -0.68033
O          4.08446         8.97398        -1.76219
O         -3.95222         9.55391        -2.90928
H         -3.52568         8.80746        -3.38684
O          0.85481        -4.67627        -1.87846
O          2.32766        -1.06137         2.56486
H          3.11675        -1.41446         3.04820
O         -8.11201        -1.32476         1.45521
O         -3.00771         6.40199         1.23976
H         -3.07117         5.65190         1.88138
O         -2.58975        -1.84543        -0.90450
O         -5.97593        -0.37781        -1.34567
H         -6.84022         0.01876        -1.70537
O          2.83276        -9.52021        -2.13986
H          3.31531        -9.01584        -2.83109
O         10.62028         1.19939         1.67420
H         10.63300         0.22876         1.86346
O          0.12744        -7.82914        -0.21576
O          4.13597         4.29907        -1.36613
O         -0.23197         1.15937         2.12035
O         -3.69270        -4.40712         1.66887
O         -8.69909         3.24798        -1.83300
H         -8.60103         2.24441        -1.95886
O         -4.60034        -6.25236        -1.43490
O          6.99602        -8.31673         1.08070
H          7.12803        -7.43686         1.54862
O          5.61628         2.04573        -0.77283
O          4.01459        -7.04152        -1.93103
O          6.93235        -4.23932        -2.41937
H          7.38479        -3.51134        -2.89703
O          8.48792        -3.45407         1.66738
H          8.20405        -4.39320         1.91753
O         -6.06589        -8.22248        -2.18211
H         -5.79170        -7.36945        -2.59223
O          5.19865         6.11827         1.61374
H          4.28182         6.04235         1.96627
O          1.50222         9.97990        -2.36463
H          2.24938         9.47437        -2.76439
O          0.13781        -2.29679        -1.62826
H         -0.73526        -1.93380        -1.90079
O          2.70935         2.19714        -1.57282
H          2.92587         2.92404        -2.19955
O         -4.22763         4.88375        -1.79994
O         -0.01855         9.83405         0.95243
H          0.71585        10.34032         1.35765
O          2.51198         6.17810         1.35904
H          1.56755         6.13389         1.64445
O          8.72986        -1.03824        -2.30332
H          8.69902        -0.05511        -2.41346
O         -0.81731        -7.19258        -2.24779
H         -0.37250        -7.42942        -3.10097
O         -6.30224         3.15491        -1.76135
H         -5.38089         3.08971        -2.11039
O          2.70236         1.89466         2.01281
H          2.42486         1.13211         2.57422
O         -2.85436         3.69225         2.34119
H         -2.18325         3.40458         2.99825
O         -4.92661        -3.01383        -1.39487
H         -5.30544        -2.18822        -1.78786
O          8.37997         1.17764        -1.23171
H          7.43306         1.46258        -1.27296
O          8.72623         5.12111         2.49136
H          7.82468         4.82718         2.76399
O        -10.61478        -1.65342         1.68749
H         -9.80156        -1.82342         2.21943
O         -5.31982         2.16609         2.38342
H         -5.30768         1.46346         3.06806
O          3.56177        -3.99209         2.74766
H          2.77790        -4.57225         2.87437
H         11.57653        -0.99811        -1.81897
H         11.99655         1.13391        -0.81793
H         10.84014         3.48589         0.11154
H          9.79707         5.45097         0.75889
H          8.36716         7.81647         1.22565
H          7.10127        10.01229         0.83699
H          5.00397        11.16629         0.56510
H          2.44087        11.09002         0.20833
H         -0.04629        11.15337        -0.68002
H         -2.50569        11.08545        -0.94755
H         -4.88759        11.01816        -0.56318
H         -6.90602         9.83401         0.04794
H         -8.43406         7.66816        -0.18036
H         -9.67687         5.56439        -0.50686
H        -11.01982         3.35496        -0.07347
H        -12.19524         1.17077        -0.59185
H        -12.20598        -1.25873        -0.63093
H        -10.97160        -3.62122         0.10492
H         -9.56895        -5.70159        -0.41392
H         -8.28615        -7.61695        -0.96836
H         -7.13522        -9.91634        -0.23690
H         -5.16606       -11.16956         0.41941
H         -2.56735       -11.37631         0.35410
H         -0.14633       -11.58563        -0.00292
H          2.97257        -9.77415         1.24207
H          4.81656       -11.06198        -1.31982
H          6.94077       -10.03088        -0.87041
H          7.56505        -7.42666        -1.85975
H          8.70251        -5.27700        -1.95849
H          9.95197        -3.27650        -2.05247
