         762
 CSIRO Nanostructure Databank - Neutral Graphene Oxide Data Set
C         22.92018        24.49230        -1.20806
C         21.73478        25.10733        -0.69881
C         22.71514        27.35816        -0.86520
C         21.64250        26.45075        -0.45880
C         22.76046        28.78698        -0.43414
C         21.57268        29.48763        -0.25782
C         22.75061        31.61742        -0.19153
C         21.56652        30.89096        -0.15747
C         22.74264        33.09907        -0.34156
C         21.50719        33.91100        -0.19355
C         22.78126        36.00617         0.25220
C         21.52835        35.23789         0.03092
C         22.80072        37.50147         0.27479
C         21.62101        38.23470         0.51089
C         22.83943        40.30142         0.93082
C         21.65002        39.63128         0.72807
C         22.86040        41.81087         1.09463
C         21.85160        42.36643         2.07625
C         23.18998        44.42422         2.39165
C         21.97070        43.60482         2.58692
C         23.19851        45.98479         2.46864
C         21.94542        46.70995         2.67567
C         23.01898        48.78445         1.99315
C         21.88718        48.06021         2.42682
C         25.58166        23.25463        -2.21387
C         25.35200        24.64117        -1.82482
C         24.08262        25.21287        -1.39874
C         25.26404        27.44530        -0.96124
C         24.02876        26.69849        -1.28277
C         25.25872        28.81034        -0.50038
C         24.00405        29.49486        -0.37509
C         25.25315        31.58178        -0.01261
C         24.00143        30.91273        -0.20545
C         25.26200        33.04669         0.19566
C         24.04768        33.81081        -0.22564
C         25.32143        35.99867        -0.32303
C         24.07581        35.27364         0.12136
C         25.27829        37.52851        -0.24007
C         24.04151        38.16464         0.28582
C         25.41280        40.25377         0.89058
C         24.08579        39.52986         0.82888
C         25.40667        41.73080         0.97646
C         24.23254        42.42172         1.31288
C         25.48879        44.53381         1.42602
C         24.30943        43.78840         1.67922
C         25.48113        45.99341         1.47402
C         24.32902        46.70474         1.84126
C         25.38134        48.89921         1.25075
C         24.24816        48.15201         1.69418
C         25.44873        50.32707         1.22299
C         28.08252        23.00572        -1.80658
C         26.76871        22.55400        -2.24617
C         28.27947        24.43725        -1.72146
C         26.40613        25.54398        -1.87208
C         27.71651        27.31600        -0.57492
C         26.46158        26.78681        -1.17206
C         27.76083        28.77510        -0.31159
C         26.49067        29.48495        -0.26062
C         27.72217        31.57703         0.43308
C         26.46090        30.87955         0.04459
C         27.83329        33.03154         0.14685
C         26.56971        33.80004         0.20953
C         27.72129        35.58918        -0.93365
C         26.58404        35.18974        -0.31044
C         27.75368        37.79139        -0.76056
C         26.54890        38.30724        -0.20805
C         27.85254        40.29630         0.30653
C         26.61523        39.58964         0.33750
C         27.84899        41.71490         0.48086
C         26.62013        42.43441         0.78436
C         27.74306        44.59847         0.37199
C         26.60584        43.84318         0.90175
C         27.76712        46.05921         0.54436
C         26.63838        46.71183         1.01133
C         27.88179        48.93994         0.93393
C         26.55758        48.17436         0.65535
C         27.80242        50.38061         0.25257
C         26.54944        51.03172         0.80579
C         30.43654        20.11234        -1.39825
C         29.31974        20.80959        -1.72466
C         30.27246        22.84810        -0.65477
C         29.14387        22.20211        -1.37332
C         30.24157        24.30499        -0.32619
C         29.12490        25.09163        -0.88314
C         30.25816        27.26748        -0.23990
C         29.00533        26.51966        -0.47467
C         30.22690        28.62172        -0.02644
C         28.97779        29.36824         0.00525
C         30.27985        31.54291         0.30708
C         29.01121        30.78926         0.43323
C         30.28779        32.88932         0.00597
C         29.03655        33.61478        -0.17160
C         30.30239        35.85367        -0.74899
C         29.05416        34.89701        -0.99085
C         30.27138        37.43657        -0.67146
C         29.02541        38.25357        -0.42048
C         30.32040        40.31510         0.13700
C         29.07815        39.60238         0.04886
C         30.29276        41.71739         0.22449
C         29.06230        42.40288         0.32769
C         30.26774        44.63137        -0.04838
C         29.03248        43.85215         0.11770
C         30.06521        45.97800        -0.31192
C         28.95652        46.76676         0.15588
C         30.36955        48.67222         0.93516
C         29.12122        48.13111         0.54284
C         30.26911        50.95559         0.90195
C         29.04549        51.29662         0.33048
C         30.21773        53.11673        -0.81914
C         29.04724        52.44390        -0.50306
C         32.89332        18.57106        -0.55540
C         32.83870        20.00482        -0.47570
C         31.48300        20.67291        -0.45525
C         32.76930        22.85369        -0.57906
C         31.58802        22.16316        -0.62997
C         32.79610        24.33473        -0.69407
C         31.52064        25.08364        -0.45474
C         32.78696        27.26685        -0.24971
C         31.53061        26.49650         0.09221
C         32.79694        28.60899         0.00243
C         31.51083        29.29179         0.35570
C         32.84141        31.52798         0.62890
C         31.52085        30.77860         0.56643
C         32.73045        32.96149         0.14243
C         31.55583        33.62880        -0.05336
C         32.71019        35.90683         0.28534
C         31.55615        35.12276        -0.31240
C         32.75527        37.40294         0.18470
C         31.55993        38.15673        -0.33182
C         32.78607        40.25679         0.19643
C         31.57199        39.60469         0.04477
C         32.83563        41.71905         0.42715
C         31.55023        42.49538         0.34365
C         32.93148        44.68338         0.11107
C         31.57553        43.94847        -0.07697
C         33.00935        46.13371         0.37006
C         31.94664        46.97253         0.05858
C         32.85702        48.76649         1.35208
C         31.67639        48.14891         0.81215
C         32.77736        51.01329         0.91956
C         31.50346        51.58648         0.56348
C         32.74774        53.17677        -0.84781
C         31.48144        52.65830        -0.36432
C         32.77268        54.29972        -1.70395
C         35.32528        18.58346        -0.32135
C         34.08966        17.90662        -0.59468
C         35.22964        20.00296         0.21188
C         34.00117        20.73035        -0.27671
C         35.23560        22.89152        -0.29576
C         34.03631        22.17294        -0.36304
C         35.25907        24.34794        -0.43698
C         34.06485        25.06333        -0.56111
C         35.28017        27.26944        -0.51289
C         33.99746        26.56009        -0.84008
C         35.27801        28.66017        -0.33485
C         34.02790        29.39705        -0.11097
C         35.26460        31.54170        -0.11417
C         34.03498        30.77546         0.03527
C         35.26287        32.93405        -0.04236
C         34.02250        33.67078         0.31141
C         35.30786        35.91439         0.35522
C         34.01071        35.15318         0.43697
C         35.32572        37.41326         0.33509
C         34.05103        38.15885         0.20659
C         35.32132        40.31666         0.09800
C         34.04548        39.53281         0.15500
C         35.32685        41.77172         0.41309
C         34.13330        42.44361         0.36002
C         35.38734        44.62237         0.93810
C         34.07637        43.88899         0.66139
C         35.40353        46.10419         0.98219
C         34.18825        46.77614         0.90606
C         35.30162        49.03022         0.86979
C         34.10112        48.19963         1.17881
C         35.21449        50.46428         0.35858
C         33.97319        51.33268         0.29662
C         35.20343        53.06640        -1.02590
C         33.97996        52.52078        -0.53373
C         35.19210        54.18782        -1.86221
C         33.96152        54.77159        -2.22618
C         37.90913        15.95363        -0.87938
C         36.70366        16.59512        -0.89327
C         37.76818        18.58351         0.14239
C         36.54609        17.92132        -0.36663
C         37.75602        20.08899         0.32072
C         36.49977        20.80241         0.03926
C         37.76398        22.89756        -0.13063
C         36.50119        22.17425        -0.13000
C         37.74268        24.33438        -0.29572
C         36.52204        25.03069        -0.46288
C         37.78556        27.19576        -0.43100
C         36.53828        26.49400        -0.85817
C         37.79877        28.69262        -0.59519
C         36.49976        29.39208        -0.29329
C         37.75379        31.51022        -0.09750
C         36.52326        30.81179        -0.20970
C         37.81996        32.93094        -0.39322
C         36.47153        33.70030        -0.37323
C         37.81586        35.96810        -0.17497
C         36.50914        35.20419        -0.21191
C         37.79492        37.39292         0.28384
C         36.63390        38.11145         0.20180
C         37.83621        40.34544         0.60575
C         36.63482        39.59570         0.17654
C         37.85035        41.72951         0.64469
C         36.59738        42.48587         0.55570
C         37.88783        44.66511         0.51872
C         36.62284        43.86148         0.73277
C         37.88793        46.00783         1.23429
C         36.64958        46.80324         1.36661
C         37.83017        49.20805         0.96812
C         36.61418        48.42135         1.29231
C         37.77456        50.40974         0.26687
C         36.52206        51.19939         0.17790
C         37.75709        53.04469        -1.17726
C         36.50610        52.50540        -0.57783
C         37.75826        54.22839        -1.87091
C         36.45637        54.69120        -2.51970
C         37.59947        56.72472        -3.25183
C         36.44922        56.16619        -2.82526
C         40.29975        14.40326        -0.29015
C         40.28301        15.80472        -0.05191
C         39.10365        16.56612        -0.34552
C         40.26606        18.61692         0.38815
C         39.06991        17.91287         0.03294
C         40.24101        20.07425         0.33066
C         39.04209        20.78649         0.20979
C         40.24999        22.91911        -0.03124
C         38.99603        22.21097         0.00641
C         40.22598        24.35319        -0.14677
C         38.98658        25.05094        -0.25293
C         40.21297        27.20993        -0.00267
C         38.96711        26.49922        -0.25328
C         40.20973        28.60286         0.23277
C         38.93008        29.30625         0.19606
C         40.26690        31.47395         0.51577
C         38.95374        30.80036         0.38113
C         40.28454        32.90977         0.35203
C         39.12192        33.66488        -0.19722
C         40.26931        35.84910         0.52381
C         39.12293        35.21184        -0.15973
C         40.31254        37.29230         0.94560
C         39.01123        38.04284         0.82845
C         40.34142        40.23526         1.10994
C         39.01176        39.53765         0.99604
C         40.34773        41.73564         1.12845
C         39.08606        42.48041         0.90225
C         40.39944        44.59049         0.92927
C         39.13294        43.85887         0.84570
C         40.37899        45.99625         1.20535
C         39.12096        46.52379         1.60261
C         40.33839        49.13568         0.79626
C         39.11415        48.69700         1.32810
C         40.32685        50.35636         0.07286
C         39.02254        50.94302        -0.32459
C         40.31376        52.92977        -1.38996
C         39.00298        52.24114        -1.09807
C         40.35062        54.32154        -2.00321
C         38.98524        54.88658        -2.31350
C         40.78879        57.28061        -3.00283
C         38.84286        55.99625        -3.11385
C         40.82071        58.64568        -3.29356
C         42.25582        14.16372         1.07799
C         41.28153        13.59221         0.24104
C         42.28618        15.53800         1.25941
C         41.37239        16.44294         0.63652
C         42.69918        18.67477         0.91921
C         41.43925        17.88864         0.69839
C         42.69925        20.09804         0.44069
C         41.50667        20.78334         0.27320
C         42.71515        22.95367         0.01407
C         41.47696        22.22771         0.08210
C         42.70407        24.37778        -0.01821
C         41.45469        25.06595        -0.08851
C         42.60981        27.16988         0.44190
C         41.43280        26.49386         0.03102
C         42.44212        28.42814         1.01560
C         41.34427        29.28294         0.74317
C         42.72899        31.47559         1.07894
C         41.41789        30.74124         0.83610
C         42.72974        32.98965         1.00735
C         41.41452        33.62719         0.71645
C         43.06945        36.13900         0.91605
C         41.25113        35.02069         0.98662
C         42.84344        37.41486         0.47987
C         41.59284        38.09801         0.83076
C         42.74902        40.24562         0.28005
C         41.57621        39.47478         0.80491
C         42.79513        41.73643         0.35910
C         41.64321        42.46604         0.95815
C         42.91742        44.59886         0.81528
C         41.61130        43.91815         0.81780
C         42.93993        46.09659         0.99407
C         41.61789        46.82025         1.26747
C         42.88671        49.03573         0.68167
C         41.58794        48.35711         1.07772
C         42.79906        50.50741         0.36510
C         41.52493        51.10791        -0.13973
C         42.73471        53.17162        -0.91732
C         41.50754        52.37288        -0.72284
C         42.63933        54.64902        -1.07947
C         41.56092        55.21596        -1.72440
C         42.68456        57.48626        -1.54402
C         41.63620        56.65376        -2.05566
C         42.67296        58.87837        -1.79114
C         41.73581        59.46541        -2.62943
C         45.48942        16.00042         1.46588
C         44.28280        16.62230         1.52540
C         45.23863        18.63904         0.39680
C         44.06290        18.03369         1.13645
C         45.15077        20.03328        -0.12210
C         44.01502        20.85764         0.46854
C         45.14385        22.98009        -0.32647
C         43.95669        22.27266        -0.05540
C         45.14288        24.39713        -0.22857
C         43.94705        25.07898         0.02795
C         45.26285        27.29386         0.26825
C         43.94408        26.55991         0.17356
C         45.41982        28.74826         0.59195
C         44.31495        29.53288         1.06572
C         45.16656        31.59325         0.16166
C         44.05029        30.83302         0.75939
C         45.16250        33.05902         0.33467
C         44.01339        33.72495         0.65060
C         45.18112        35.85313        -0.37294
C         44.02438        35.19470         0.33305
C         45.22852        37.36122        -0.44275
C         43.97682        38.13518        -0.16036
C         45.21056        40.30940        -0.19933
C         44.05267        39.59698         0.05184
C         45.25711        41.75866        -0.18314
C         44.07749        42.45210         0.16554
C         45.17796        44.56781        -0.30545
C         44.07278        43.85589         0.23012
C         44.85869        45.97217        -0.53229
C         44.00646        46.76732         0.19498
C         45.28856        49.02244        -0.35849
C         44.12206        48.25938         0.23013
C         45.29553        50.39186        -0.30915
C         44.08313        51.17788         0.01529
C         45.24772        53.32828        -0.25459
C         44.03611        52.53588        -0.60874
C         45.13895        54.81182        -0.19847
C         43.78131        55.46289        -0.58222
C         44.98234        57.60574        -0.56420
C         43.82774        56.89877        -0.86580
C         46.64507        16.69310         0.95835
C         47.77372        18.67237        -0.01672
C         46.55917        17.96533         0.48177
C         47.69599        20.04310        -0.65232
C         46.36564        20.75116        -0.67706
C         47.68242        22.98155        -1.16898
C         46.35705        22.24627        -0.80894
C         47.69541        24.45870        -0.73876
C         46.41345        25.16618        -0.38820
C         47.77492        27.27554        -0.13717
C         46.55679        26.49211         0.35059
C         47.78083        28.69387        -0.12945
C         46.55175        29.40670         0.17009
C         47.75499        31.60069        -0.06561
C         46.48264        30.86085        -0.05945
C         47.74669        32.99745        -0.01714
C         46.50493        33.78900         0.35789
C         47.76422        35.88871        -0.41757
C         46.47664        35.11918        -0.42002
C         47.80257        37.36244        -0.44625
C         46.52861        38.07787        -0.26029
C         47.73453        40.25501        -0.81784
C         46.51093        39.57482        -0.23679
C         47.70286        41.76143        -0.61852
C         46.48990        42.48494        -0.45789
C         47.65428        44.65963        -1.11706
C         46.41233        43.92763        -0.63327
C         47.80628        46.19731        -1.19686
C         46.63374        47.07234        -1.11564
C         47.82315        49.08173        -0.58328
C         46.56372        48.35610        -0.66224
C         47.79084        50.45583        -0.58401
C         46.48535        51.15851        -0.87455
C         47.77376        53.42057        -0.60692
C         46.53322        52.60726        -0.40140
C         47.69613        54.92667        -0.41382
C         46.36741        55.61036        -0.24199
C         46.23267        56.97963        -0.28993
C         50.19487        18.95320         0.32812
C         49.06239        18.30268         0.61673
C         50.23919        20.03799        -0.73279
C         48.95170        20.86154        -0.69440
C         50.24457        23.00943        -0.97225
C         48.95238        22.21422        -0.79881
C         50.20592        24.32435        -0.15056
C         48.96707        25.13883        -0.40063
C         50.25715        27.25569        -0.42484
C         48.99328        26.53857        -0.31375
C         50.21425        28.74304        -0.77707
C         48.96430        29.44674        -0.31805
C         50.20895        31.59514        -0.03487
C         48.98065        30.87370        -0.14967
C         50.20916        33.01667         0.09794
C         48.96857        33.70147         0.05049
C         50.22565        35.94574         0.25780
C         48.93066        35.17273         0.17828
C         50.23608        37.35729        -0.14598
C         49.02361        38.07180        -0.33342
C         50.21350        40.23795        -0.29509
C         49.03554        39.54420        -0.41269
C         50.28493        41.69804        -0.59430
C         48.97221        42.42936        -0.90226
C         50.31331        44.65065        -0.85619
C         48.99433        43.92573        -1.05441
C         50.27072        46.13905        -0.74501
C         49.09914        46.86144        -0.86789
C         50.24026        49.00194        -0.39416
C         49.07064        48.31386        -0.63243
C         50.29121        50.47648        -0.37918
C         49.03604        51.24754        -0.60026
C         50.19376        53.40918        -0.06857
C         49.04520        52.71645        -0.35820
C         50.09876        54.83428         0.18430
C         48.94103        55.54250         0.07166
C         52.71637        20.14123        -0.42843
C         51.49933        20.84998        -0.57215
C         52.71974        22.95694        -0.43074
C         51.50125        22.23991        -0.59785
C         52.68988        24.40344        -0.44015
C         51.49074        25.11175        -0.34976
C         52.74006        27.27594        -0.66154
C         51.45417        26.54677        -0.47018
C         52.73512        28.80383        -0.56678
C         51.46127        29.49692        -0.37373
C         52.69690        31.54141         0.20490
C         51.45597        30.84821        -0.05991
C         52.64556        32.96337         0.71966
C         51.43413        33.76338         0.30007
C         52.68612        35.92413         0.50478
C         51.48031        35.16257         0.30540
C         52.73752        37.32587         0.33531
C         51.53761        38.02128        -0.19852
C         52.71272        40.29487         0.23409
C         51.52974        39.55413        -0.25365
C         52.61457        41.73906         0.30281
C         51.49235        42.45888        -0.16801
C         52.63082        44.65586         0.05996
C         51.50868        43.91797        -0.28943
C         52.85061        46.06629        -0.46637
C         51.56385        46.84341        -0.69434
C         52.65953        49.02642         0.23455
C         51.53977        48.33009        -0.49449
C         52.70227        50.51866        -0.00479
C         51.53036        51.20271        -0.01759
C         52.77849        53.35973         0.00026
C         51.47188        52.67829         0.33990
C         53.90685        20.81066        -0.26603
C         55.19235        22.90702        -0.03579
C         53.95002        22.23308        -0.24610
C         55.25014        24.35262        -0.27496
C         53.97163        25.12382        -0.53553
C         55.19668        27.29235        -0.18476
C         54.00481        26.59116        -0.37262
C         55.17122        28.73611        -0.05844
C         53.97477        29.46318        -0.14933
C         55.16183        31.53194         0.59127
C         53.90275        30.85174         0.21109
C         55.19439        33.03332         0.76086
C         53.92674        33.73370         0.52962
C         55.24080        35.91133         0.96269
C         53.88590        35.14042         0.84199
C         55.15484        37.42102         0.99808
C         53.89221        38.12036         0.63081
C         55.08418        40.26412         1.17911
C         53.86704        39.55542         0.57970
C         55.08477        41.79516         1.07060
C         53.75151        42.49246         0.88377
C         55.09957        44.72512         0.83432
C         53.77128        44.00308         0.73188
C         55.14987        46.21638         0.61704
C         53.92448        46.91818         0.21629
C         55.20034        49.04705         0.33605
C         53.96650        48.29280         0.16110
C         55.22085        50.46552         0.24491
C         54.01118        51.19065        -0.32100
C         53.93257        52.69089        -0.14771
C         57.62926        22.90084         0.32484
C         56.43290        22.24056         0.19652
C         57.69439        24.35935         0.51427
C         56.41065        25.12460         0.24280
C         57.67029        27.23489         0.20988
C         56.46064        26.58520         0.02474
C         57.67120        28.70351         0.33236
C         56.40696        29.45094         0.15395
C         57.63226        31.60656         0.04540
C         56.41477        30.81937         0.30829
C         57.63304        33.06742         0.19994
C         56.47192        33.77435         0.53084
C         57.69451        35.95024         0.35303
C         56.44739        35.19743         0.57941
C         57.71471        37.44261         0.51996
C         56.47407        38.19992         0.90095
C         57.55918        40.37486         0.31057
C         56.40177        39.64352         0.68940
C         57.55161        41.78543         0.32125
C         56.36553        42.53376         0.76428
C         57.56550        44.70005         0.50772
C         56.36381        44.00678         0.58953
C         57.62653        46.15613         0.50986
C         56.43240        46.90625         0.45548
C         57.66744        49.04723         0.50301
C         56.43837        48.33767         0.42987
C         57.64406        50.43986         0.52937
C         56.43782        51.13862         0.38441
C         60.19062        24.42714         0.42011
C         58.96817        25.11418         0.41867
C         60.19019        27.24446         0.25305
C         58.94332        26.53515         0.32155
C         60.24106        28.69934         0.15064
C         58.97540        29.44396         0.30978
C         60.23247        31.62912        -0.05947
C         58.95192        30.88687        -0.09510
C         60.17857        33.07156        -0.23337
C         58.85807        33.75092        -0.28063
C         60.13256        35.98539        -0.36810
C         58.84090        35.26470        -0.33250
C         60.06342        37.45963        -0.54720
C         58.78150        38.20725        -0.20423
C         60.00114        40.33859        -0.26184
C         58.80482        39.67790        -0.04263
C         60.04952        41.81829        -0.29191
C         58.73595        42.56542        -0.05643
C         60.03835        44.63283         0.42695
C         58.81079        43.98791         0.32596
C         60.08384        46.06792         0.68979
C         58.87390        46.81251         0.56304
C         60.10385        48.87417         1.22775
C         58.98078        48.30822         0.39701
C         61.39720        25.12410         0.35318
C         61.39434        26.51256         0.27548
C         61.39334        29.44857         0.01782
C         61.39222        30.87946        -0.00521
C         61.32056        33.84002        -0.34670
C         61.29726        35.26592        -0.43085
C         61.28691        38.26451        -0.59685
C         61.23053        39.61468        -0.49517
C         61.28081        42.54628         0.03952
C         61.26375        43.87218         0.32636
C         61.24831        46.73210         1.09897
C         61.20509        48.10942         1.47211
O         38.59672        29.88106         1.48983
O         47.23646        35.21622        -1.63721
O         28.29236        31.08654         1.68592
O         56.79140        24.78258         1.61058
O         43.42464        28.85426         1.89904
O         43.54333        51.26428         1.37537
O         44.15347        55.18406         0.81083
O         32.78139        50.03889         1.92484
O         52.80871        28.10592        -1.87880
O         23.54369        33.50012        -1.54651
O         39.13105        47.72992         2.32307
O         41.67705        47.74830         2.38885
O         45.95250        52.78726         0.91959
O         58.33249        29.15911         1.59357
O         45.57692        31.19303        -1.18947
O         27.53158        25.21004        -2.61643
O         38.86919        50.97739        -1.83278
O         23.60517        45.12871         3.59665
O         40.60008        53.14530        -2.83051
O         42.75631        32.28964         2.29852
O         43.23507        15.99258         2.18934
O         42.34836        41.07863        -0.89028
O         30.30954        49.83237         1.75020
O         58.18216        31.17994        -1.29792
O         59.26924        42.34402        -1.41525
O         43.38124        18.69874         2.27009
O         58.22103        36.60211         1.59662
O         28.06995        26.59356         0.67786
O         31.98996        24.91135        -1.81496
O         43.93655        48.72258         1.61944
O         36.61632        52.46420         0.91356
O         32.40045        36.71923         1.45070
O         51.78100        47.78618        -1.82306
O         46.66949        38.85549         1.02138
O         46.00985        21.36971        -1.94252
O         58.55789        34.50292        -1.53096
O         49.90128        50.93918        -1.76271
O         49.86055        44.25409        -2.18179
O         24.92023        39.60908         2.11234
O         49.79157        41.84010        -1.97990
O         51.79268        38.74950        -1.45162
O         43.31978        45.23864         2.10633
O         35.47305        36.62652         1.61108
O         31.14065        37.97451        -1.72042
O         34.04919        34.31951         1.64213
O         37.62584        19.18729         1.49192
O         45.46723        46.54175        -1.65311
O         31.33340        35.47000        -1.71015
O         53.38360        43.35723         1.99292
O         36.54255        47.69526         2.52767
O         28.08958        44.17771        -0.99451
O         39.44439        37.43673         2.10954
O         47.77904        18.83523        -1.48296
O         44.58940        27.17990        -1.02621
O         36.09394        40.06031        -1.13149
O         55.88907        37.82497         2.18531
O         55.89344        42.29298         2.17794
O         43.62697        52.58744        -1.99797
O         39.46799        34.48472        -1.36391
O         46.91648        25.24686        -1.74291
O         47.64401        45.35493        -2.39436
O         55.09432        45.61903         1.99483
O         41.16440        42.11421         2.30163
O         23.12759        27.28809        -2.27679
O         35.22846        49.33501        -0.58599
O         34.49010        44.14561         2.02770
O         32.48177        44.22298        -1.19480
O         25.06586        36.79973        -1.50750
O         29.97281        23.36522         0.73634
O         49.36420        35.71256         1.44636
O         44.77241        18.93093        -0.98996
O         44.08771        35.33093        -1.15680
O         54.54883        35.39792         2.13084
O         46.69348        34.06860         1.71938
O         42.19970        35.58794         1.85246
O         55.16396        32.13423         1.95665
O         59.04250        37.78683        -1.57461
O         39.58589        39.85001         2.30405
O         44.39069        37.83015        -1.54518
O         37.03539        35.84823        -1.40755
O         27.69899        36.75698        -1.69770
O         47.78600        54.31511        -1.75920
O         54.85321        24.69929        -1.64301
O         31.08056        46.66362        -0.98336
O         25.82415        33.54306         1.44849
O         37.10148        33.27319        -1.61527
O         23.55946        35.53613         1.44815
O         39.92563        56.52810        -3.80386
O         32.14221        42.19995         1.65582
O         31.41419        29.84568         1.71416
O         30.95599        20.42395         0.88897
H         31.48598        20.95049         1.52436
O         52.25642        48.89579         1.64732
H         53.03440        49.09395         2.21060
O         33.20100        31.66708         2.02922
H         32.76576        30.92770         2.51426
O         31.52171        26.33153         1.53946
H         31.32088        27.19769         1.95530
O         22.44260        42.31189        -0.22770
H         22.38772        43.28953        -0.17585
O         33.85985        26.70683        -2.29604
H         34.74434        26.48095        -2.68237
O         44.39325        21.08735         1.87109
H         44.00645        20.34625         2.40732
O         36.58574        26.49891        -2.35554
H         37.06537        27.32651        -2.61248
O         50.17767        28.78013        -2.24467
H         51.06304        28.46417        -2.55445
O         46.79264        26.16124         1.74855
H         46.83124        26.99554         2.26251
O         36.46742        54.01996        -3.82735
H         37.33115        54.20202        -4.25615
O         27.87012        49.12216         2.36076
H         28.73362        49.51805         2.62619
O         52.51739        32.83287         2.18169
H         53.40038        32.53790         2.52079
O         50.38801        23.35323        -2.36273
H         49.50917        23.23395        -2.80599
O         47.74497        23.00934        -2.62020
H         47.12484        23.71468        -2.92146
O         54.93433        40.00958         2.59696
H         55.52313        40.64164         3.06935
O         38.07548        28.92485        -2.03130
H         37.88645        29.86821        -2.23076
O         54.16510        50.98767        -1.76945
H         53.35458        51.32324        -2.20945
O         37.93956        44.97277        -0.91939
H         37.91509        44.12570        -1.41378
O         46.35206        51.22400        -2.31805
H         46.49815        50.32903        -2.68949
O         50.32693        19.40735        -2.03182
H         49.45019        18.98243        -2.20524
O         47.63237        40.04882        -2.25785
H         48.37548        40.55121        -2.67009
O         29.17603        34.41159        -2.35275
H         29.36644        35.17892        -2.93385
O         51.39501        52.69100         1.80747
H         52.19053        52.23617         2.15621
O         50.14640        23.90118         1.25081
H         50.06542        24.70260         1.80989
O         26.29738        48.12105        -0.79399
H         25.47021        47.61254        -0.92922
O         35.02727        19.89277         1.66670
H         35.87097        19.52491         2.03260
O         53.46282        45.83183        -1.77327
H         53.18014        46.57815        -2.35503
O         27.65713        50.26582        -1.17929
H         26.93636        49.62146        -1.37820
O         59.40306        48.51631        -1.01061
H         60.24031        48.01936        -1.13534
H         22.92249        23.40332        -1.35584
H         20.89472        24.45413        -0.42225
H         20.77879        26.85329         0.08962
H         20.61214        28.95510        -0.28735
H         20.59935        31.40955        -0.11365
H         20.53660        33.40891        -0.31970
H         20.57376        35.78213         0.07722
H         20.64766        37.72734         0.49508
H         20.69730        40.17669         0.78572
H         20.95357        41.77040         2.29800
H         21.20341        43.99264         3.27320
H         21.07891        46.17802         3.09031
H         22.92162        49.87022         1.86435
H         20.94931        48.60456         2.60615
H         24.67562        22.66847        -2.43897
H         24.58550        50.90162         1.59293
H         26.68622        21.48218        -2.48929
H         26.50998        52.13182         0.83193
H         30.54272        19.07618        -1.75252
H         28.55375        20.33592        -2.35772
H         30.15833        53.96825        -1.50964
H         28.10339        52.76731        -0.96339
H         31.95736        18.00917        -0.67738
H         31.83645        54.80223        -1.97869
H         34.09595        16.82555        -0.79025
H         33.93348        55.61423        -2.92857
H         37.96216        14.93710        -1.28915
H         35.83319        16.07908        -1.31975
H         37.64264        57.75583        -3.62988
H         35.51264        56.73911        -2.84592
H         39.49585        13.94267        -0.87690
H         40.13075        59.05249        -4.04349
H         42.98865        13.53620         1.60048
H         41.27113        12.50932         0.06071
H         43.43819        59.51627        -1.33227
H         41.75309        60.54768        -2.81336
H         45.59972        14.98383         1.86242
H         45.00681        58.69496        -0.70209
H         47.60900        16.16803         0.98339
H         47.12628        57.62003        -0.26673
H         51.12303        18.67258         0.84729
H         49.05918        17.52227         1.39116
H         50.99224        55.34868         0.56660
H         48.91476        56.58892         0.40962
H         52.71439        19.04424        -0.48051
H         52.80004        54.46080         0.01395
H         54.83475        20.23130        -0.17883
H         54.85092        53.26551        -0.34585
H         58.55434        22.30951         0.36432
H         56.45552        21.14198         0.19017
H         58.58265        51.00828         0.58137
H         56.47005        52.23441         0.31546
H         60.21087        23.33233         0.49808
H         60.09509        49.93735         1.50619
H         62.34878        24.57612         0.37220
H         62.35574        27.04090         0.23372
H         62.37189        28.95449        -0.05710
H         62.37044        31.37997        -0.03005
H         62.30523        33.35255        -0.35011
H         62.26357        35.78229        -0.51550
H         62.25977        37.76546        -0.70355
H         62.16342        40.18736        -0.58189
H         62.23203        41.99937         0.09729
H         62.21650        44.37566         0.53910
H         62.18312        46.17935         1.25858
H         62.07814        48.54295         1.98101
