         324
 CSIRO Nanostructure Databank - Neutral Graphene Oxide Data Set
C          1.09270         3.97809        -1.79684
C         -0.10992         4.64398        -1.63527
C          1.03168         6.60353        -0.71008
C         -0.14536         5.94245        -1.10110
C          1.01573         7.96172        -0.17531
C         -0.15455         8.71499        -0.04728
C          1.00018        10.74187         0.73188
C         -0.15506        10.07480         0.34499
C          1.05363        12.17202         0.98870
C         -0.13970        12.94678         0.95783
C          1.09732        15.02427         1.35557
C         -0.12003        14.30521         1.16044
C          1.09782        16.44152         1.53549
C         -0.15335        17.16621         1.52990
C          0.99435        19.34455         1.99851
C         -0.20869        18.49757         1.70909
C          0.98383        20.55250         1.04596
C          0.26664        20.61381        -0.16420
C          1.13714        22.85686        -0.61126
C          0.33927        21.75403        -0.96740
C          1.17750        24.12135        -1.36972
C          0.49060        24.28879        -2.65715
C          1.74052        26.35057        -3.12605
C          0.69643        25.39647        -3.41706
C          1.91747        27.49766        -3.94259
C          3.55356         3.95165        -1.57767
C          2.31141         4.60078        -1.40617
C          3.50705         6.53674        -0.44688
C          2.27806         5.92029        -0.85201
C          3.46952         7.90106         0.02335
C          2.26939         8.58186         0.16270
C          3.51911        10.63280         1.10103
C          2.23742         9.93107         0.79548
C          3.51653        12.09617         1.44147
C          2.27056        12.86246         1.24788
C          3.57609        15.00246         1.44755
C          2.32016        14.27834         1.37776
C          3.54059        16.42436         1.55446
C          2.32623        17.15906         1.68283
C          3.55980        19.29708         2.03552
C          2.33948        18.59837         1.89368
C          3.67086        20.73740         2.24783
C          1.76906        21.65025         1.38337
C          3.00709        23.73288         0.81071
C          1.91890        22.80490         0.57623
C          3.43182        24.67992        -0.12076
C          2.38133        25.06428        -1.09226
C          3.83868        26.86604        -1.92808
C          2.67197        26.09098        -2.09135
C          3.97643        28.03277        -2.74907
C          2.98243        28.34314        -3.72130
C          6.00201         3.90488        -1.37291
C          4.75674         4.55155        -1.14934
C          5.97499         6.38091         0.12044
C          4.72536         5.84323        -0.54033
C          6.02998         7.89658         0.06501
C          4.75933         8.62995         0.06990
C          6.06140        10.73001         0.80516
C          4.77365        10.06652         0.51914
C          6.08387        12.09442         1.15243
C          4.83368        12.82546         1.48399
C          6.08726        14.94578         1.44677
C          4.82771        14.30029         1.39727
C          6.12167        16.42215         1.36639
C          4.78753        17.19007         1.41302
C          6.05900        19.25299         1.88184
C          4.82303        18.60755         1.80699
C          6.10960        20.70830         2.12881
C          4.84599        21.45005         2.08335
C          6.00776        23.57445         1.37625
C          4.90759        22.87990         1.85348
C          5.81883        25.06316         0.93537
C          4.71409        25.36283        -0.12421
C          6.12191        27.21553        -1.06367
C          4.86100        26.48294        -0.96555
C          6.20117        28.45297        -1.84658
C          5.10180        28.87245        -2.60506
C          8.41721         3.79438        -1.53429
C          7.24956         4.45783        -0.99666
C          8.48014         6.43585        -0.02173
C          7.27363         5.70945        -0.29751
C          8.45629         7.84968         0.15308
C          7.23255         8.59296         0.20096
C          8.47772        10.74496         0.60419
C          7.25648        10.02950         0.52192
C          8.53257        12.12404         0.89344
C          7.30991        12.80571         1.18673
C          8.59198        14.87845         1.70466
C          7.29822        14.21302         1.46251
C          8.59730        16.38581         1.84625
C          7.34456        17.15588         1.67912
C          8.55517        19.31282         1.76629
C          7.31426        18.54691         1.77174
C          8.57549        20.68144         1.67301
C          7.36879        21.49455         1.91118
C          8.50110        23.60987         1.29375
C          7.31471        22.93243         1.48255
C          8.52054        25.04186         0.91919
C          7.20205        25.69167         0.55872
C          8.58065        27.15586        -1.12455
C          7.27123        26.75127        -0.46702
C          8.61707        28.62722        -1.48620
C          7.37630        29.23110        -1.81719
C         10.97000         3.68437        -1.57855
C          9.70014         3.94078        -1.01510
C         11.02648         6.39833        -0.15382
C          9.75068         5.77259         0.03398
C         11.04377         7.81614         0.28512
C          9.72830         8.54226         0.41049
C         10.98658        10.79549         0.18149
C          9.70863        10.02695         0.23507
C         11.01480        12.17995         0.64901
C          9.81616        12.83541         0.95327
C         11.12788        14.88444         1.46517
C          9.85936        14.19999         1.37156
C         11.16227        16.33350         1.65314
C          9.87579        17.08397         1.53684
C         11.10214        19.26616         1.93868
C          9.83403        18.57408         1.57279
C         11.10736        20.76818         1.87259
C          9.83549        21.41368         1.43388
C         11.07697        23.65951         1.46731
C          9.80374        22.89210         1.25666
C         11.06998        25.12587         0.99318
C          9.80800        25.62862         0.43359
C         11.07626        27.33485        -0.78058
C          9.84181        26.71561        -0.41960
C         11.06911        28.38948        -1.85461
C          9.82132        29.21918        -1.78954
C         13.39459         3.83399        -1.64185
C         12.15308         4.40453        -1.24386
C         13.35847         6.59516        -1.08326
C         12.15313         5.74815        -0.67427
C         13.48245         7.93854        -0.41949
C         12.31678         8.59129         0.15697
C         13.41039        10.89374        -0.43236
C         12.29865        10.09104         0.20232
C         13.55001        12.23042         0.28302
C         12.35590        12.71348         1.09885
C         13.64685        14.85462         1.42299
C         12.33381        14.20296         1.26582
C         13.65949        16.35680         1.65611
C         12.34623        17.02654         1.66590
C         13.60245        19.22399         1.45225
C         12.37270        18.49213         1.89082
C         13.58436        20.70293         1.29311
C         12.38413        21.50767         1.68795
C         13.54286        23.64794         1.22864
C         12.36219        22.95767         1.38272
C         13.55514        25.03496         0.83756
C         12.35330        25.70174         0.57017
C         13.52728        27.54701        -0.58422
C         12.31816        26.88946        -0.25671
C         13.52909        28.73836        -1.40041
C         12.32167        29.20068        -1.92191
C         15.88669         3.80187        -1.71620
C         14.64825         4.47807        -1.50545
C         15.89908         6.53340        -1.06768
C         14.67904         5.85732        -1.14485
C         15.93828         7.95020        -0.66733
C         14.66292         8.69844        -0.55611
C         15.88503        10.87240        -0.79615
C         14.68713        10.09682        -0.46693
C         15.92244        12.34399        -0.44400
C         14.73458        12.93014         0.24711
C         16.02586        15.01499         0.68244
C         14.85818        14.25871         0.81634
C         16.09337        16.41040         1.04666
C         14.90038        17.11925         1.36981
C         16.12785        19.26381         1.44683
C         14.90492        18.51773         1.44900
C         16.14105        20.69631         1.43574
C         14.88479        21.42552         1.15751
C         16.09107        23.68998         1.49766
C         14.84475        22.91500         1.14177
C         16.03913        25.01190         0.73844
C         14.83934        25.63431         0.49118
C         16.06278        27.67758        -0.50866
C         14.79539        27.01986        -0.05516
C         16.01754        28.87277        -1.38681
C         14.76615        29.39986        -1.72767
C         18.37257         3.78441        -1.84197
C         17.10124         4.48138        -1.67441
C         18.36018         6.62160        -1.50823
C         17.12922         5.89001        -1.40649
C         18.44064         7.99021        -1.24389
C         17.22349         8.69866        -0.80260
C         18.48496        10.90911        -0.98425
C         17.17756        10.16693        -1.04534
C         18.45409        12.33318        -0.54217
C         17.25328        12.97840        -0.27940
C         18.56540        15.14055         0.19080
C         17.22315        14.41910         0.03721
C         18.58976        16.46807         0.83380
C         17.33425        17.14078         1.05515
C         18.61607        19.20060         1.64481
C         17.34259        18.51592         1.38639
C         18.62849        20.75925         1.65960
C         17.34518        21.46432         1.41570
C         18.62765        23.58622         1.23649
C         17.34949        22.85730         1.28059
C         18.60783        25.03488         0.68899
C         17.30331        25.54592         0.17787
C         18.58075        27.57455        -0.76987
C         17.31254        26.86184        -0.53469
C         18.51140        28.85189        -1.40002
C         17.25085        29.43459        -1.76309
C         19.53778         4.44847        -1.96700
C         20.85072         6.58664        -1.60307
C         19.57689         5.94719        -2.10015
C         20.89366         7.88748        -1.23734
C         19.68900         8.70545        -1.15956
C         20.91901        10.81413        -0.60333
C         19.72413        10.09100        -0.87436
C         20.91722        12.16870        -0.34640
C         19.73077        12.97303        -0.27129
C         20.99850        14.98722         0.51720
C         19.79173        14.32756         0.13574
C         21.02282        16.31198         0.88822
C         19.82819        17.09451         1.04738
C         21.05958        19.24549         1.42286
C         19.88333        18.50217         1.39265
C         21.06963        20.65938         1.41988
C         19.90873        21.42990         1.39713
C         21.05004        23.57270         0.81195
C         19.90684        22.85943         1.14923
C         21.02629        24.91560         0.35460
C         19.85322        25.62738         0.16446
C         20.99980        27.64369        -0.81299
C         19.81524        26.94353        -0.48743
C         20.94548        28.90538        -1.41268
C         19.72779        29.50767        -1.71422
O          3.70123        23.56039         2.00112
O         17.78464        15.20666        -1.06241
O          5.47319        16.92381         0.14091
O         10.42213         8.02947         1.60199
O          7.88306        26.01555         1.83480
O         13.84954        15.41859         2.76816
O         16.77851         8.25853         0.52365
O         12.64029         9.37023         1.39070
O         13.32418        19.84698         0.12910
O         17.81035        10.60118        -2.27295
O          1.06550        25.27645        -0.47855
O         10.23530        10.49989        -1.05695
O         11.74547        18.81278         3.17601
O         17.23430        25.60144        -1.30006
O         18.62486        24.77416         2.12291
O          6.89719        21.20091         3.28534
O          9.84910        17.86092         0.28454
O          2.87717         9.84788         2.14721
O          4.68678         9.76133        -0.91522
O         18.60623        19.97690         2.88878
O         14.96410        22.19309        -0.12030
O          9.74016         4.43008         0.33129
O         10.99303        24.74345         2.41190
O         15.54705        27.95990         0.83237
O          9.92557        21.99705         0.07874
O         11.79907        21.31960         3.03128
O          8.65183        15.56222         3.04159
O         15.62499        11.91380        -1.82089
O          2.54606        21.52015         2.54742
O          4.17633        12.34687         2.72947
O          8.58285        26.42980        -2.39933
H          9.38021        26.74693        -2.90116
O         16.03884        23.98863         2.91544
H         16.87732        24.45616         3.14018
O         12.57968        12.15037         2.44960
H         12.00464        12.63278         3.08143
O          0.79849        19.78206         3.36114
H          1.45434        20.49032         3.56019
O         10.97734        27.63524        -3.16738
H         11.81751        27.13763        -3.27321
O         19.53608         6.21340        -3.54980
H         19.57478         7.18678        -3.66739
O         13.03731         6.91243        -2.49900
H         13.80321         7.39090        -2.88314
O          5.35529        25.78187         2.09432
H          6.14011        25.93937         2.66841
O          5.80599         6.05339         1.55909
H          6.64402         6.28472         2.01462
O         13.01030        11.15623        -1.80636
H         13.77285        11.61557        -2.23660
H          1.11816         2.96505        -2.22287
H         -1.05049         4.15902        -1.93146
H         -1.11976         6.43789        -0.99367
H         -1.12132         8.27219        -0.32296
H         -1.11611        10.60559         0.30351
H         -1.10803        12.45562         0.79692
H         -1.08064        14.83384         1.15138
H         -1.09390        16.62270         1.37709
H         -1.18096        19.01012         1.73808
H         -0.36019        19.76610        -0.47556
H         -0.25103        21.78813        -1.89319
H         -0.22107        23.51914        -2.98814
H          0.11592        25.54105        -4.34032
H          1.18491        27.71557        -4.73253
H          3.58344         2.95481        -2.04228
H          3.10794        29.24973        -4.33037
H          5.99687         2.94182        -1.90504
H          5.16326        29.80375        -3.18704
H          8.27737         3.18295        -2.43805
H          7.36518        30.24300        -2.25031
H         11.04881         2.93274        -2.37808
H          9.85469        30.26491        -2.13266
H         13.38134         2.80303        -2.02680
H         12.31855        30.09484        -2.56324
H         15.87488         2.72354        -1.93449
H         14.71698        30.31126        -2.34244
H         18.35702         2.68380        -1.83203
H         17.25883        30.36341        -2.35324
H         20.48303         3.89656        -2.08140
H         21.78119         6.00145        -1.65861
H         21.85930         8.33972        -0.96903
H         21.88170        10.28469        -0.59087
H         21.88703        12.64768        -0.15669
H         21.95216        14.44410         0.47494
H         21.99354        16.77217         1.11667
H         22.02859        18.73733         1.32110
H         22.04701        21.15305         1.32680
H         22.02143        23.05923         0.79950
H         21.98479        25.34804         0.03591
H         21.98192        27.20521        -0.59170
H         21.88314        29.42509        -1.65462
H         19.70195        30.49355        -2.19952
