         430
 CSIRO Nanostructure Databank - Neutral Graphene Oxide Data Set
C         27.91745        27.39171        -0.47866
C         27.91781        28.79698        -0.46441
C         26.67718        29.55288        -0.50967
C         27.95558        31.63454        -0.97095
C         26.67775        30.89345        -0.65160
C         27.91889        33.12281        -0.70304
C         26.71953        33.83616        -0.83184
C         27.88808        35.97414        -0.66352
C         26.69053        35.22293        -0.76729
C         27.87501        37.39607        -0.69986
C         26.68185        38.16823        -0.84161
C         27.86005        40.20988        -0.02705
C         26.67531        39.51767        -0.64473
C         27.86795        41.71439        -0.19495
C         26.66466        42.43657        -0.14444
C         27.86520        44.54603        -0.27180
C         26.65437        43.82582        -0.20034
C         27.87785        45.97470        -0.31381
C         30.33142        27.33119        -0.14437
C         29.10110        26.66977        -0.35195
C         30.32819        28.74599        -0.11312
C         29.14672        29.49613        -0.31299
C         30.31557        31.67514        -0.11346
C         29.17028        30.95099        -0.37933
C         30.36319        33.12727        -0.23062
C         29.13079        33.83768        -0.48654
C         30.37233        35.97901        -0.39571
C         29.12961        35.26023        -0.50802
C         30.40107        37.39133        -0.49308
C         29.16450        38.13838        -0.90542
C         30.35873        40.25839        -0.39085
C         29.15814        39.56431        -0.43443
C         30.35478        41.70345        -0.27420
C         29.10177        42.41051        -0.25348
C         30.33480        44.56492        -0.29837
C         29.10344        43.83970        -0.28157
C         30.32159        45.98976        -0.32491
C         29.06116        46.66587        -0.34333
C         32.84073        24.51788         0.25838
C         31.63737        25.20852         0.10292
C         32.83232        27.32298         0.14716
C         31.59158        26.60840         0.05280
C         32.85244        28.74789         0.14702
C         31.55894        29.45789         0.25678
C         32.85167        31.66937         0.31169
C         31.53161        30.95335         0.32654
C         32.84079        33.15027         0.19531
C         31.55628        33.84485        -0.05088
C         32.84181        35.97521        -0.23889
C         31.59414        35.26472        -0.20234
C         32.84227        37.36926        -0.37038
C         31.61963        38.09738        -0.44245
C         32.83020        40.26800        -0.35714
C         31.62014        39.55040        -0.46473
C         32.81947        41.70515        -0.27609
C         31.57152        42.41643        -0.27661
C         32.80241        44.56811        -0.25275
C         31.57576        43.85369        -0.27334
C         32.79968        45.99987        -0.27129
C         31.56307        46.70930        -0.32068
C         32.79069        48.81935        -0.32842
C         31.60109        48.13296        -0.35422
C         35.33723        23.07707         0.80469
C         35.32829        24.49019         0.53457
C         34.07592        25.18789         0.31843
C         35.29869        27.34107         0.16103
C         34.07072        26.61678         0.21710
C         35.27995        28.74412         0.01041
C         34.05630        29.45265         0.05703
C         35.34161        31.66769        -0.04688
C         34.03951        30.93272        -0.28195
C         35.33568        33.10605        -0.03350
C         34.11419        33.84930        -0.08647
C         35.35384        35.95191        -0.17947
C         34.10938        35.24368        -0.19268
C         35.37144        37.38112        -0.25508
C         34.11935        38.10587        -0.68495
C         35.27388        40.26289        -0.10893
C         34.08730        39.57014        -0.30954
C         35.27528        41.71208        -0.07190
C         34.03563        42.42314        -0.20020
C         35.27316        44.57019        -0.13471
C         34.04594        43.85697        -0.19294
C         35.27889        46.00184        -0.16687
C         34.03785        46.71590        -0.23815
C         35.28479        48.85691        -0.22032
C         34.04070        48.13971        -0.26324
C         35.32565        50.27829        -0.23088
C         37.71514        23.15991         1.38800
C         36.45752        22.43632         1.23610
C         37.77991        24.53239         0.87367
C         36.55123        25.19662         0.53929
C         37.76103        27.29470         0.11771
C         36.55887        26.62503         0.25298
C         37.82756        28.72910        -0.23420
C         36.52504        29.49440        -0.25083
C         37.79932        31.65333         0.04719
C         36.54025        30.96778        -0.05219
C         37.81203        33.08198         0.05449
C         36.57375        33.80435        -0.00792
C         37.81246        35.94553         0.05584
C         36.57471        35.23461        -0.03130
C         37.81112        37.37119         0.05546
C         36.56250        38.08291        -0.10875
C         37.71204        40.22718         0.18966
C         36.54476        39.54459        -0.03669
C         37.68480        41.68454         0.45053
C         36.46890        42.42917         0.08675
C         37.74478        44.57050         0.02918
C         36.51422        43.85836         0.00307
C         37.75615        46.00161        -0.08097
C         36.50941        46.71346        -0.13048
C         37.75999        48.85301        -0.12108
C         36.51871        48.14280        -0.16108
C         37.76526        50.27595        -0.12513
C         36.51806        50.96036        -0.18084
C         40.23009        20.24842         0.96407
C         39.09859        20.90497         1.33486
C         40.30934        23.09575         1.09388
C         39.09035        22.36259         1.45958
C         40.27757        24.50591         0.87599
C         39.03149        25.16837         0.70339
C         40.31531        27.32289         0.14687
C         39.02115        26.54072         0.16307
C         40.24832        28.78919         0.25113
C         39.08132        29.47664         0.05054
C         40.23951        31.65931         0.24869
C         39.03543        30.94011         0.12914
C         40.27196        33.07112         0.16807
C         39.05007        33.78849         0.07522
C         40.26972        35.94547         0.06118
C         39.05397        35.23722         0.06570
C         40.27082        37.35948         0.18314
C         39.03827        38.06426         0.16294
C         40.19831        40.25983         0.64908
C         39.04159        39.55550        -0.03068
C         40.22822        41.70461         0.54435
C         38.97525        42.45121         0.61263
C         40.20769        44.56367         0.24433
C         39.00642        43.89609         0.27871
C         40.26762        45.95403        -0.32799
C         38.98087        46.71249        -0.10860
C         40.24547        48.83935        -0.06251
C         39.00194        48.12903        -0.10245
C         40.24194        50.26345        -0.03309
C         39.01190        50.98938        -0.07200
C         40.23386        53.10202         0.01643
C         39.04668        52.41471        -0.04709
C         42.67024        20.26135         0.48515
C         41.47978        20.95137         0.80667
C         42.82794        23.06367         1.07675
C         41.50298        22.36557         0.92745
C         42.77729        24.52479         0.73307
C         41.54305        25.21708         0.68618
C         42.77582        27.35412         0.49332
C         41.55881        26.62301         0.51242
C         42.76688        28.77825         0.52511
C         41.46099        29.49688         0.81133
C         42.72788        31.67755         0.81116
C         41.54869        30.90993         0.21275
C         42.74497        33.11095         0.34091
C         41.55127        33.77074         0.13900
C         42.81279        35.94786         0.12387
C         41.55257        35.22135        -0.28799
C         42.77044        37.40200         0.25963
C         41.53110        38.06338         0.31486
C         42.77526        40.22532         0.66320
C         41.52303        39.48077         0.68358
C         42.77524        41.68275         0.52223
C         41.47450        42.43400         0.44356
C         42.76972        44.58484         0.40184
C         41.46519        43.90847         0.78578
C         42.74687        46.00933         0.18026
C         41.52279        46.71187         0.03263
C         42.73383        48.84734         0.08978
C         41.50127        48.12433         0.01272
C         42.72607        50.28263         0.08493
C         41.48154        50.98205         0.03862
C         42.70319        53.10972         0.12739
C         41.47506        52.40382         0.06061
C         43.87354        20.94825         0.26249
C         45.21688        23.05145         0.24640
C         43.98765        22.32681         0.45259
C         45.23131        24.48277         0.33515
C         43.99986        25.20834         0.51978
C         45.24113        27.32850         0.27749
C         44.01504        26.63032         0.42950
C         45.25025        28.82222         0.04046
C         43.96662        29.52395         0.42990
C         45.25701        31.64633         0.48149
C         44.00462        30.92115         0.53238
C         45.23101        33.10848         0.45454
C         44.01708        33.80342         0.35217
C         45.24323        35.99437         0.70465
C         43.98342        35.25264         0.32083
C         45.25302        37.38418         0.08398
C         43.98795        38.12951         0.41441
C         45.23860        40.29669         0.61454
C         43.99625        39.53503         0.59185
C         45.25875        41.67792         0.62761
C         44.00056        42.45120         0.95682
C         45.23094        44.57312         0.30394
C         43.97479        43.89600         0.48781
C         45.22992        46.00586         0.18148
C         43.98504        46.72178         0.16799
C         45.21233        48.87182         0.11605
C         43.97344        48.14618         0.12305
C         45.20759        50.29720         0.11084
C         43.94575        51.01157         0.12280
C         43.90257        52.43013         0.15186
C         47.60527        23.08922        -0.25989
C         46.42719        22.38637        -0.04697
C         47.64222        24.49495        -0.18857
C         46.44461        25.19875         0.13306
C         47.71317        27.36903         0.06582
C         46.45200        26.63740         0.17484
C         47.74324        28.77792         0.24287
C         46.47370        29.46467         0.70476
C         47.76602        31.66718         0.73509
C         46.46226        30.96195         0.50608
C         47.73073        33.13056         0.38740
C         46.50181        33.82443         0.41824
C         47.72072        35.95541         0.28621
C         46.51470        35.24301         0.38012
C         47.71549        37.41464         0.37529
C         46.52815        38.10983         0.41712
C         47.76029        40.28015         0.46945
C         46.51305        39.54224         0.86881
C         47.69494        41.69826         0.30369
C         46.49219        42.41022         0.44318
C         47.69118        44.56974         0.10577
C         46.46135        43.85229         0.28124
C         47.69670        46.00414         0.06594
C         46.45179        46.72020         0.10055
C         47.66871        48.88395         0.01558
C         46.45183        48.16201         0.08161
C         47.64124        50.28265        -0.00511
C         46.43939        50.97974         0.05873
C         49.99044        24.61886        -1.01017
C         48.86301        25.24162        -0.45763
C         50.23266        27.33749        -0.16384
C         48.89269        26.65088        -0.22809
C         50.16453        28.83951        -0.27762
C         48.95172        29.52484         0.05966
C         50.16664        31.67144        -0.02031
C         48.96610        30.94219         0.16843
C         50.19272        33.10684         0.09316
C         48.95215        33.82866         0.23688
C         50.20277        35.97514         0.20594
C         48.96062        35.25554         0.20854
C         50.18766        37.39373         0.35008
C         48.98594        38.12339         0.44061
C         50.26052        40.32766         0.48288
C         48.95836        39.56455         0.43873
C         50.19613        41.68250        -0.18835
C         48.89847        42.41519        -0.15420
C         50.15839        44.56071        -0.05147
C         48.92448        43.88150        -0.06360
C         50.16060        45.98752         0.08900
C         48.92922        46.69079         0.02975
C         50.13818        48.77929         0.59416
C         48.98895        48.18113        -0.18162
C         51.12537        25.37895        -1.40190
C         52.45671        27.49242        -1.53355
C         51.26090        26.69928        -1.06483
C         52.56271        28.86196        -0.89253
C         51.34767        29.54984        -0.48664
C         52.60953        31.68812        -0.33869
C         51.37984        30.97492        -0.30918
C         52.63178        33.07623        -0.18878
C         51.41789        33.81083        -0.01832
C         52.67402        35.96194        -0.06725
C         51.44308        35.25939         0.07117
C         52.70766        37.39725        -0.01388
C         51.49770        38.13132         0.50548
C         52.69100        40.28681        -0.08371
C         51.39480        39.51311        -0.14006
C         52.66954        41.69658        -0.17069
C         51.46509        42.44067        -0.19083
C         52.63243        44.60140        -0.00019
C         51.42870        43.86268        -0.13391
C         52.62492        45.98266         0.34667
C         51.38195        46.68575         0.36637
C         51.28273        48.07433         0.76275
C         54.93676        27.36226        -1.37098
C         53.75391        26.72121        -1.42956
C         54.99153        28.81166        -1.25916
C         53.77042        29.51061        -0.88696
C         55.04943        31.66060        -1.03880
C         53.91117        30.91715        -0.35806
C         54.92954        33.16265        -1.18797
C         53.97942        33.76357        -0.12833
C         55.09006        35.94743        -0.54211
C         53.91373        35.26859        -0.29060
C         55.13629        37.45139        -0.68655
C         53.86991        38.12091        -0.22067
C         55.15791        40.24866         0.01120
C         53.90549        39.56932        -0.10970
C         55.20315        41.66972        -0.02722
C         53.95320        42.38841        -0.32659
C         55.15985        44.58068         0.24149
C         53.92512        43.93334        -0.20942
C         55.07812        45.94463         0.62975
C         53.87669        46.62426         0.63580
C         56.14633        29.51993        -1.49131
C         56.12047        30.95956        -1.50120
C         56.25329        33.89237        -1.17815
C         56.29382        35.20789        -0.87729
C         56.33819        38.10470        -0.04224
C         56.33980        39.42913         0.22414
C         56.37589        42.43924         0.14328
C         56.34949        43.83041         0.28679
O         37.17933        29.08235        -1.51076
O         38.16487        42.07387         1.79951
O         31.38176        30.16698         1.55466
O         33.01938        32.45059         1.51704
O         49.43314        41.80179        -1.42575
O         38.41682        22.89717         2.63755
O         39.77288        26.74303        -1.09947
O         42.24357        42.11225        -0.78329
O         40.67629        39.71259         1.90711
O         54.02866        43.25280        -1.50107
O         54.31622        30.79575         1.06297
H         55.11641        30.22777         1.08479
O         41.23849        29.50438         2.24198
H         41.80745        30.21252         2.63305
O         45.25313        37.17780        -1.36365
H         45.24862        38.05674        -1.79740
O         43.10396        23.02002         2.54160
H         43.09752        22.07454         2.80452
O         54.29928        33.40204        -2.48246
H         54.91665        33.09820        -3.18006
O         46.39908        29.25326         2.15668
H         46.49807        28.29026         2.32166
O         41.87095        30.75324        -1.19710
H         41.09829        30.34200        -1.64029
O         28.11356        31.52589        -2.43606
H         28.14716        30.56920        -2.65114
O         55.25734        37.71501        -2.13039
H         54.42720        37.40894        -2.55385
O         42.57450        31.76098         2.26823
H         43.39701        32.15352         2.63005
O         51.72706        38.28999         1.94602
H         51.84108        37.39376         2.32806
O         47.95495        31.62600         2.20641
H         47.62584        30.74456         2.50917
O         54.53778        33.53850         1.19002
H         54.47621        32.56764         1.38472
O         39.32838        39.77492        -1.46497
H         38.74284        39.18369        -1.98430
O         45.23189        36.16574         2.14890
H         45.27593        35.27806         2.56106
O         27.73841        39.96844         1.43152
H         28.45425        40.47538         1.87103
O         46.57216        39.47038         2.35217
H         47.36448        38.94005         2.58520
O         29.26868        38.23315        -2.39255
H         29.41778        37.32316        -2.72922
O         49.31880        48.38449        -1.60631
H         50.14432        47.88509        -1.78530
O         51.07512        39.27801        -1.53025
H         50.76085        40.12067        -1.92655
O         50.55231        40.64724         1.86634
H         50.89559        39.82791         2.29952
O         41.36780        43.97956         2.23709
H         41.37188        44.92284         2.50087
O         34.17532        38.10745        -2.16544
H         34.96008        38.63424        -2.42767
O         52.24228        27.73721        -2.96752
H         53.01738        28.23923        -3.29754
O         43.95419        42.48911         2.41431
H         44.83721        42.75758         2.74326
O         40.36718        45.77319        -1.79679
H         39.56671        45.28481        -2.08531
O         45.42444        29.02610        -1.39060
H         44.60083        28.74158        -1.83893
O         41.56447        35.21023        -1.76502
H         42.41037        34.79955        -2.04590
O         50.72662        27.09699         1.22318
H         50.73595        26.12411         1.35369
O         33.79354        30.98592        -1.72821
H         34.54865        30.54750        -2.17683
H         26.96348        26.85683        -0.59257
H         25.73156        29.00316        -0.38714
H         25.71888        31.42960        -0.67285
H         25.77377        33.30565        -1.00381
H         25.72591        35.73716        -0.86750
H         25.74056        37.67083        -1.12180
H         25.74473        40.07915        -0.80720
H         25.70861        41.90329        -0.05317
H         25.70074        44.37196        -0.17218
H         26.92004        46.51476        -0.31694
H         29.05654        25.57283        -0.37821
H         29.02967        47.76292        -0.37154
H         32.79923        23.42237         0.31573
H         30.71022        24.62355         0.03570
H         32.76132        49.91624        -0.35652
H         30.66693        48.70734        -0.40191
H         34.40170        22.50678         0.73480
H         34.39420        50.85716        -0.27575
H         36.40518        21.38284         1.54222
H         36.49072        52.05744        -0.18978
H         40.22667        19.15375         0.85697
H         38.18254        20.34339         1.56346
H         40.23852        54.20134         0.03501
H         38.11048        52.98685        -0.07613
H         42.63478        19.17227         0.34130
H         42.68898        54.20882         0.15155
H         44.73684        20.36855        -0.09407
H         44.83413        53.00910         0.19647
H         48.51925        22.52314        -0.48414
H         46.45275        21.28995        -0.10604
H         48.57996        50.84617        -0.09559
H         46.46951        52.07662         0.03514
H         49.97246        23.55012        -1.25864
H         50.08924        49.82910         0.91768
H         51.89181        24.88093        -2.01325
H         52.14636        48.55521         1.24426
H         55.88554        26.80502        -1.39927
H         53.72938        25.62544        -1.51849
H         56.00066        46.47003         0.91792
H         53.87965        47.68778         0.91008
H         57.06836        28.99811        -1.78317
H         56.98944        31.47726        -1.93368
H         57.16855        33.38104        -1.51074
H         57.24324        35.75702        -0.95883
H         57.24477        37.50867         0.13712
H         57.24998        39.90396         0.61952
H         57.34169        41.92695         0.25658
H         57.28818        44.35220         0.52614
