         344
 CSIRO Nanostructure Databank - Neutral Graphene Oxide Data Set
C          1.83722         3.82700        -2.87911
C          0.59282         4.63983        -3.05619
C          1.54840         6.59055        -1.89071
C          0.44552         5.88063        -2.57501
C          1.50667         8.07786        -1.68622
C          0.37515         8.91849        -2.16386
C          1.33737        10.85037        -0.96975
C          0.30317        10.21631        -1.82084
C          1.30020        12.28590        -0.63179
C          0.15538        13.08820        -0.92088
C          1.00453        14.94062         0.54356
C          0.00832        14.35039        -0.42374
C          1.08341        16.45000         0.41459
C         -0.10421        17.19411         0.42472
C          1.12001        19.27862         0.21053
C         -0.09273        18.58754         0.29554
C          1.25138        20.77233        -0.06577
C         -0.02217        21.57544        -0.01576
C          1.11683        23.59886         0.96789
C         -0.05179        22.86896         0.32969
C          1.19328        25.07277         0.59416
C         -0.02544        25.85164         0.56208
C          1.19002        27.93359         0.08493
C         -0.03095        27.20756         0.43570
C          1.30545        29.38881         0.28650
C          4.15126         3.85767        -1.93010
C          2.97446         4.56465        -2.20442
C          3.98013         6.59495        -1.23276
C          2.86774         5.91542        -1.82492
C          3.95977         7.99707        -0.99238
C          2.83986         8.81830        -1.58901
C          3.93343        10.93158        -0.59993
C          2.65931        10.13427        -0.84774
C          3.63554        12.16454         0.21556
C          2.41385        12.85882         0.05870
C          3.55725        14.95629         0.56605
C          2.33238        14.24557         0.45597
C          3.57874        16.39463         0.39271
C          2.32373        17.12633         0.33852
C          3.59225        19.27037         0.26768
C          2.32934        18.54975         0.26860
C          3.64861        20.62771         0.50724
C          2.35555        21.35576         0.83012
C          3.61204        23.51714         0.68377
C          2.42977        22.86705         0.72073
C          3.67352        25.00033         0.96926
C          2.41176        25.70434         0.53060
C          3.75896        27.85541         0.33867
C          2.50018        27.11629         0.14321
C          3.76967        29.27608         0.29925
C          2.51056        30.00685         0.31172
C          6.37626         3.71283        -0.86096
C          5.22239         4.46519        -1.24055
C          6.24323         6.47373        -0.22222
C          5.14797         5.84079        -0.89102
C          6.17856         7.85281         0.10383
C          5.02697         8.65048        -0.30319
C          5.96938        10.58219         0.99757
C          4.97021        10.02037         0.02400
C          6.03537        12.07991         0.92469
C          4.70946        12.78847         1.07510
C          6.06574        14.85738         0.30795
C          4.75845        14.23869         0.69127
C          6.04223        16.36470         0.33294
C          4.80999        17.05785         0.26250
C          6.11107        19.21434         0.15374
C          4.81657        18.51010        -0.14378
C          6.09746        20.65508         0.27843
C          4.89938        21.33514         0.48985
C          6.10126        23.51056         0.21473
C          4.92612        22.78836         0.92047
C          6.16007        24.99335         0.48505
C          4.95364        25.69838         0.53824
C          6.20984        27.83256         0.47791
C          4.96828        27.13119         0.47544
C          6.22392        29.26064         0.43080
C          4.99322        29.96122         0.35715
C          8.56860         3.45770         0.28104
C          7.43046         4.31035        -0.20958
C          8.56874         6.36316         0.62692
C          7.41785         5.71585         0.08240
C          8.51076         7.73943         0.92171
C          7.32353         8.48707         0.66975
C          8.49500        10.64773         0.98421
C          7.30209         9.90966         0.86159
C          8.48391        12.05395         0.99533
C          7.23880        12.75605         0.93556
C          8.54250        14.92005         0.66879
C          7.24148        14.26511         1.08806
C          8.51964        16.31661         0.36051
C          7.28168        17.03988         0.25217
C          8.57450        19.21193        -0.06622
C          7.28582        18.48433         0.16636
C          8.55096        20.63232         0.42830
C          7.37221        21.36227         0.37277
C          8.61469        23.49723         0.48301
C          7.39993        22.79397         0.43935
C          8.64659        24.94358         0.52883
C          7.40731        25.67248         0.53054
C          8.65862        27.81057         0.65905
C          7.43458        27.10933         0.56372
C          8.66708        29.22244         0.64250
C          7.47523        29.93482         0.50566
C         11.03958         3.52758         0.41521
C          9.85607         4.22407         0.42960
C         11.02984         6.29506         1.01549
C          9.83505         5.63336         0.72147
C         10.97634         7.62988         1.73890
C          9.69975         8.43535         1.47796
C         11.03659        10.65205         1.21926
C          9.74123         9.93637         1.37000
C         11.02000        12.04360         1.05058
C          9.74337        12.81595         1.34120
C         10.99187        14.87593         0.54469
C          9.74140        14.22368         0.79028
C         11.00008        16.28111         0.33659
C          9.77272        17.01470         0.28622
C         11.05397        19.09825         0.23607
C          9.81893        18.42683         0.23596
C         11.11275        20.54878         0.51417
C          9.81018        21.32907         0.67596
C         11.08095        23.45578         0.41897
C          9.85131        22.78692         0.53670
C         11.10303        24.89437         0.41499
C          9.88298        25.60805         0.59241
C         11.15847        27.77035         0.39712
C          9.94224        27.07016         0.95436
C         11.17685        29.18805         0.38607
C          9.97292        29.93512         0.91005
C         13.48519         3.47034         0.57577
C         12.28510         4.18780         0.63076
C         13.51793         6.25794         1.11114
C         12.28190         5.59509         0.94336
C         13.55214         7.71672         1.37101
C         12.27704         8.47767         1.61152
C         13.47553        10.61172         0.97506
C         12.26746         9.93228         1.23539
C         13.46271        12.00850         0.68238
C         12.23276        12.73292         0.77070
C         13.44900        14.83982         0.28971
C         12.22594        14.15529         0.55813
C         13.44738        16.23187         0.05731
C         12.24058        16.96167         0.13949
C         13.50718        19.10831        -0.04401
C         12.26144        18.39157         0.09004
C         13.50472        20.54717        -0.08128
C         12.31806        21.29251         0.16455
C         13.48850        23.44173        -0.07895
C         12.30507        22.72175         0.19320
C         13.51972        24.85422        -0.06576
C         12.32716        25.58711         0.17757
C         13.50085        27.72279        -0.32381
C         12.32514        27.03841         0.07525
C         13.51405        29.16743        -0.36793
C         12.32282        29.87117         0.00874
C         15.94789         3.41806         0.58907
C         14.72675         4.12680         0.69951
C         15.98587         6.23477         0.85578
C         14.73963         5.55499         0.90386
C         16.00690         7.69632         1.04077
C         14.76401         8.44582         1.02536
C         16.00598        10.56360         0.55376
C         14.81269         9.93498         1.24963
C         15.91649        11.94958        -0.02612
C         14.67812        12.71738         0.36299
C         15.94358        14.83424         0.03580
C         14.68813        14.09946         0.21024
C         15.95833        16.21691        -0.15274
C         14.67267        16.92490        -0.48389
C         15.94295        19.10053        -0.31934
C         14.70977        18.40649        -0.20853
C         15.93401        20.53200        -0.38034
C         14.72510        21.22889        -0.30758
C         15.97967        23.38272        -0.20513
C         14.68968        22.70285        -0.61980
C         15.95052        24.84926        -0.54017
C         14.76967        25.55253        -0.36414
C         15.90586        27.69333        -0.79765
C         14.73573        27.00263        -0.53291
C         15.86239        29.12445        -1.26117
C         14.67539        29.85599        -0.71821
C         18.41690         3.39587         0.37329
C         17.17288         4.09090         0.55312
C         18.41979         6.21429         0.37007
C         17.18807         5.52877         0.63033
C         18.39061         7.67015         0.14857
C         17.28285         8.44955         0.76201
C         18.44497        10.57974         0.10897
C         17.19054         9.89267         0.42289
C         18.43810        12.01800         0.13497
C         17.20810        12.71852         0.14971
C         18.42863        14.86068         0.12479
C         17.19356        14.12520         0.11639
C         18.40317        16.28297         0.03040
C         17.18927        16.95122        -0.18752
C         18.39480        19.10210        -0.62691
C         17.18248        18.39463        -0.39812
C         18.40842        20.50108        -0.77593
C         17.17452        21.24933        -0.64171
C         18.35333        23.32501        -1.34396
C         17.17299        22.62810        -0.73441
C         18.34904        24.83077        -1.17720
C         17.20296        25.50806        -0.85416
C         18.46244        27.75235        -0.94090
C         17.19841        26.98725        -0.73138
C         18.37519        29.21999        -1.18345
C         17.17538        29.86023        -1.17956
C         19.59131         4.07927         0.19762
C         20.83850         6.23867        -0.08830
C         19.60633         5.51254         0.14087
C         20.89123         7.59347        -0.19425
C         19.66580         8.40825        -0.20312
C         20.87772        10.61759        -0.03712
C         19.66137         9.88645        -0.01320
C         20.89148        11.99071         0.05847
C         19.67945        12.73883         0.12757
C         20.89717        14.93092         0.15813
C         19.66735        14.16139         0.15255
C         20.91040        16.27944         0.16996
C         19.65851        17.11020         0.22563
C         20.90880        19.15373        -0.61543
C         19.67697        18.29881        -0.76475
C         20.88557        20.50007        -0.64701
C         19.65134        21.25484        -0.80625
C         20.81729        23.47114        -0.77014
C         19.64587        22.64317        -0.93669
C         20.81813        24.80707        -1.00253
C         19.62993        25.52343        -1.61400
C         20.77655        27.75838        -1.70635
C         19.67477        27.02745        -1.38692
C         20.77670        29.20324        -1.62063
C         19.63817        29.90842        -1.38020
O          9.46848         9.27802         2.67309
O          1.18843         7.19536        -0.58032
O          1.72912        10.04757         0.23535
O         16.99324         8.11132         2.13766
O         10.57067        20.84535         1.85147
O          1.84831        27.44848        -1.12929
O         18.02814        27.41905         0.43915
O         18.67966         8.02592        -1.24113
O          5.06769        22.77541         2.32200
O         13.12000         8.18568         2.77800
O         10.13011        30.01075         2.34960
H          9.31395        30.40329         2.72371
O         15.60293        29.02712        -2.73719
H         14.71305        28.62660        -2.84561
O          8.74587         2.30175        -0.54381
H          9.02102         2.60007        -1.43455
O         19.59177        17.70597         1.55305
H         19.55566        16.97961         2.20971
O         16.05295        23.29375         1.24970
H         16.82038        23.82416         1.55041
O         10.09181        27.11907         2.41806
H         10.20440        28.07304         2.65655
O          0.45659        14.67283         1.88531
H          0.67680        13.74511         2.11655
O          3.24100         9.14832        -2.96149
H          3.58668         8.33305        -3.38359
O          6.32484        14.49348        -1.09040
H          5.57428        14.81593        -1.63309
O          4.75144        18.47874        -1.63413
H          4.40842        19.35214        -1.92451
O          5.80229        23.37600        -1.21766
H          6.49450        23.85821        -1.71718
O          9.68944        12.98591         2.81028
H          9.77201        12.09355         3.21228
O         19.70493        17.71176        -2.09475
H         19.72565        18.44159        -2.74780
O         14.54343        16.82716        -1.95774
H         14.54888        15.87272        -2.18627
O          2.25347         3.34589        -4.16606
H          3.09002         2.85032        -4.05368
O         15.04568        10.15401         2.68513
H         14.46555         9.50510         3.15610
O         18.23025        23.09891        -2.81085
H         18.10006        22.13546        -2.94694
O          7.06828        14.56690         2.49064
H          7.84025        14.18356         2.96661
O          0.85786        23.54926         2.39927
H          1.02928        22.61629         2.67745
O          2.02552        21.05383         2.21631
H          2.81154        21.30452         2.75167
O          4.42179        11.39452        -1.90405
H          4.28819        10.65896        -2.54927
O          4.30381        12.68505         2.47864
H          4.46645        11.74289         2.74103
O         14.59945        22.80596        -2.07551
H         13.79851        22.31976        -2.36313
O          3.76655        25.08839         2.42695
H          4.30814        24.28333         2.70096
O          8.65145        19.38263        -1.55127
H          7.73546        19.52985        -1.87471
O          1.75288        20.88436        -1.43372
H          1.01462        20.67298        -2.04227
O         15.77025        11.75302        -1.48792
H         16.58416        11.30353        -1.80328
O          5.47835        10.23424         2.38598
H          6.26495        10.20084         2.97306
O         10.88312         7.19958         3.11855
H         10.61941         7.98743         3.64542
O         19.74355        25.36061        -3.06254
H         19.35265        24.48234        -3.29216
H          1.57219         2.93022        -2.23472
H         -0.23967         4.15150        -3.58409
H         -0.51612         6.40316        -2.68168
H         -0.41734         8.46661        -2.77823
H         -0.53427        10.82850        -2.18432
H         -0.64948        12.66688        -1.54064
H         -0.91812        14.90615        -0.62904
H         -1.06751        16.67733         0.53597
H         -1.04737        19.13209         0.28152
H         -0.93703        21.10549        -0.41468
H         -1.01438        23.40185         0.27905
H         -0.96971        25.34321         0.80367
H         -0.95226        27.78047         0.61859
H          0.38110        29.97209         0.41621
H          4.22520         2.79297        -2.20149
H          2.56256        31.10025         0.42545
H          6.41757         2.63593        -1.08099
H          5.00019        31.06147         0.34347
H          8.28465         3.07200         1.30191
H          7.49550        31.03558         0.48670
H         11.02850         2.44401         0.22733
H          9.94355        30.98058         0.49195
H         13.46045         2.38743         0.38478
H         12.33669        30.97111         0.01942
H         15.92335         2.32332         0.48378
H         14.66281        30.95556        -0.76037
H         18.40763         2.29628         0.35965
H         17.14450        30.95178        -1.32341
H         20.53437         3.53314         0.05014
H         21.77255         5.65795        -0.12327
H         21.86921         8.09130        -0.26075
H         21.83150        10.07979        -0.12409
H         21.85970        12.50732         0.04739
H         21.85756        14.39699         0.16169
H         21.87724        16.80108         0.21820
H         21.88075        18.64293        -0.55219
H         21.83501        21.05076        -0.58426
H         21.74056        23.00217        -0.39718
H         21.74218        25.38087        -0.83503
H         21.69021        27.25989        -2.06082
H         21.72042        29.73321        -1.81343
H         19.64452        31.00824        -1.39249
