         424
 CSIRO Nanostructure Databank - Neutral Graphene Oxide Data Set
C          1.39820         3.38825        -0.45182
C          0.24856         4.04497        -0.79324
C          1.24567         6.25201        -0.39292
C          0.19159         5.47930        -0.81291
C          1.23435         7.70624        -0.48324
C          0.03811         8.41344        -0.72549
C          1.24223        10.52530        -0.88349
C          0.03532         9.79054        -0.88743
C          1.24999        11.97504        -1.09532
C          0.09273        12.68119        -1.44914
C          1.24401        14.83701        -1.33057
C          0.09260        14.07247        -1.58283
C          1.25631        16.29235        -1.45270
C          0.12090        17.02219        -1.80670
C          1.21736        19.19719        -1.52256
C          0.09415        18.44286        -1.79169
C          1.17420        20.62989        -1.29197
C          0.03774        21.43149        -1.56837
C          1.04222        23.42439        -0.57945
C         -0.00175        22.80243        -1.30183
C          1.13672        24.86450        -0.28587
C         -0.06068        25.58583        -0.11080
C          1.14203        27.69048         0.09498
C         -0.05990        26.95055         0.13619
C          1.17712        29.12724         0.35811
C          0.01759        29.77079         0.91499
C          1.13074        31.96155         1.00814
C          0.01487        31.07281         1.31844
C          1.24931        33.26588         1.77555
C          0.01767        34.12626         1.64307
C          1.34698        36.16323         1.84407
C          0.08136        35.47416         1.73647
C          1.40441        37.55941         2.03766
C          3.77230         3.49128         0.15144
C          2.57181         4.11968        -0.04966
C          3.71825         6.35764         0.16072
C          2.42368         5.58894         0.28484
C          3.70134         7.74171        -0.07241
C          2.45247         8.43825        -0.38552
C          3.75906        10.55042        -0.84268
C          2.44925         9.83142        -0.62839
C          3.68159        12.04132        -0.62794
C          2.45700        12.71875        -0.88513
C          3.63033        14.88235        -0.65877
C          2.43844        14.14745        -0.95488
C          3.61977        16.33210        -0.77036
C          2.47918        17.00583        -1.18021
C          3.56008        19.15826        -0.51756
C          2.56263        18.49838        -1.48214
C          3.61060        20.66222        -0.59922
C          2.29861        21.27315        -0.68619
C          3.87923        23.60690        -0.09896
C          2.07987        22.56704        -0.18292
C          3.68648        24.95729        -0.43870
C          2.37311        25.59071        -0.28354
C          3.55433        27.79552        -0.52231
C          2.34034        27.00377        -0.20838
C          3.63154        29.18236        -0.02363
C          2.39211        29.82853         0.29438
C          3.70698        31.93318         0.76674
C          2.41477        31.27914         0.51972
C          3.72177        33.30869         1.15841
C          2.52739        34.01347         1.47030
C          3.80682        36.10980         1.69651
C          2.55921        35.41756         1.68106
C          3.84411        37.52217         1.92415
C          2.61788        38.22708         2.09089
C          6.16489         3.57109         0.70940
C          4.97400         4.22634         0.47412
C          6.13834         6.40743         0.61918
C          4.93495         5.67852         0.43368
C          6.12066         7.82742         0.45811
C          4.91804         8.49137         0.05957
C          6.09979        10.63880         0.06842
C          4.92880         9.89655        -0.15097
C          6.10857        12.07127        -0.10018
C          4.84618        12.76892        -0.35504
C          6.04698        14.93700         0.09459
C          4.80336        14.19075        -0.31901
C          6.05420        16.36396        -0.37193
C          4.88450        17.04999        -0.61336
C          6.06937        19.21840        -0.63690
C          4.89794        18.49363        -0.66390
C          6.08847        20.65962        -0.69841
C          4.82257        21.36325        -0.61257
C          6.06012        23.50898        -1.10814
C          4.92696        22.82123        -0.60758
C          6.04520        24.91697        -1.12243
C          4.84736        25.63005        -0.87499
C          6.11659        27.81140        -0.74753
C          4.83132        27.10911        -0.95132
C          6.11235        29.16706        -0.27035
C          4.86355        29.84256         0.06464
C          6.15757        31.87519         0.69839
C          4.90694        31.22274         0.52213
C          6.19716        33.25626         1.07928
C          4.98157        33.98563         1.23961
C          6.26855        36.05763         1.59691
C          5.02021        35.38139         1.52556
C          6.29960        37.47823         1.82369
C          5.09206        38.18391         1.97905
C          8.54555         3.61001         1.29514
C          7.38177         4.28402         1.00755
C          8.54410         6.47222         1.18641
C          7.35845         5.73956         0.96609
C          8.54160         7.90532         0.99397
C          7.32377         8.56716         0.62170
C          8.53179        10.70626         0.52538
C          7.31667         9.97405         0.43118
C          8.54087        12.10822         0.26848
C          7.30378        12.77066        -0.01563
C          8.57481        14.94846         0.04990
C          7.31778        14.23246        -0.37728
C          8.54116        16.43783         0.23634
C          7.35061        17.04406        -0.47391
C          8.55469        19.31232        -0.13765
C          7.36428        18.52885        -0.66109
C          8.55959        20.69170        -0.76787
C          7.29588        21.33468        -0.96576
C          8.51629        23.43415        -1.80883
C          7.18901        22.67091        -1.69404
C          8.52907        24.94030        -1.69714
C          7.21157        25.73760        -1.64608
C          8.56819        27.71298        -0.82412
C          7.31744        27.09302        -0.96131
C          8.59681        29.21599        -0.68889
C          7.34056        29.83264        -0.10923
C          8.61704        31.78088         0.70428
C          7.39114        31.17039         0.41681
C          8.69727        33.11101         1.41976
C          7.43781        33.92388         1.27386
C          8.74679        36.01709         1.48694
C          7.47829        35.31566         1.47686
C          8.76160        37.45334         1.70268
C          7.55475        38.14104         1.88883
C         11.05863         3.64713         1.42866
C          9.76948         4.32573         1.77392
C         10.98865         6.50022         1.54550
C          9.78320         5.80096         1.45748
C         10.94769         8.00018         1.72694
C          9.72502         8.64350         1.13577
C         10.98030        10.76024         0.83119
C          9.74951        10.03674         0.85172
C         10.98878        12.14600         0.54149
C          9.76451        12.82405         0.29442
C         11.02615        14.98231         0.06208
C          9.76543        14.26846         0.15815
C         11.03960        16.38649        -0.17306
C          9.83114        17.14306        -0.11639
C         11.05365        19.21703        -0.59427
C          9.83407        18.52223        -0.31650
C         11.02810        20.61504        -0.89948
C          9.77530        21.30724        -1.04357
C         11.04046        23.44507        -1.40290
C          9.82552        22.62371        -1.78294
C         11.01438        24.86630        -1.31739
C          9.79959        25.61590        -1.31866
C         11.06281        27.66965        -0.77180
C          9.80098        26.99409        -0.98837
C         11.06869        29.04928        -0.29451
C          9.87234        29.71082        -0.06501
C         11.19801        31.76888         0.69252
C          9.85137        30.99911         0.61214
C         11.16039        33.24127         0.82872
C          9.95985        33.90324         1.10890
C         11.19226        36.10194         0.92313
C          9.93125        35.32536         1.23716
C         11.21632        37.50867         1.48795
C         10.00196        38.14660         1.76587
C         13.51028         3.68888         1.37434
C         12.25639         4.35731         1.44281
C         13.47167         6.50699         1.61484
C         12.24431         5.80951         1.56463
C         13.48270         8.00516         1.83135
C         12.23004         8.70827         1.37768
C         13.45939        10.80970         0.90036
C         12.23028        10.05632         1.04925
C         13.47511        12.15833         0.57589
C         12.23278        12.87097         0.41055
C         13.46501        14.85676        -0.51368
C         12.22718        14.23274         0.06884
C         13.49361        16.36240        -0.45269
C         12.28516        17.07736        -0.41256
C         13.50943        19.17752        -0.89702
C         12.27963        18.49760        -0.62331
C         13.49594        20.60372        -1.10335
C         12.26258        21.30225        -1.12837
C         13.49888        23.45096        -1.34336
C         12.25419        22.74257        -1.28624
C         13.47841        24.86327        -1.36933
C         12.26624        25.56934        -1.21513
C         13.55318        27.67919        -0.86167
C         12.26955        26.98658        -0.95913
C         13.56977        29.10017        -0.53425
C         12.33025        29.76395        -0.19272
C         13.52343        31.97256        -0.33689
C         12.35333        31.12730         0.09903
C         13.58184        33.32328         0.33367
C         12.41367        33.93529         0.76035
C         13.68590        36.10337         1.01786
C         12.43653        35.32809         1.34060
C         13.67229        37.50242         1.22699
C         12.44899        38.16683         1.55550
C         15.96524         3.70133         1.49162
C         14.72471         4.38994         1.48197
C         15.97624         6.53307         1.67847
C         14.70977         5.82885         1.59389
C         16.01599         7.95118         1.57083
C         14.74019         8.62540         1.27511
C         15.98684        10.85809         1.24665
C         14.73906        10.07025         0.93193
C         15.98069        12.20920         0.58567
C         14.74666        12.86642         0.37005
C         15.96498        14.88585        -0.33883
C         14.74462        14.20348        -0.07269
C         15.93489        16.27091        -0.74274
C         14.73165        17.02547        -0.70841
C         15.97030        19.14349        -1.18196
C         14.72326        18.44954        -0.94197
C         15.97374        20.59225        -1.34398
C         14.73954        21.31229        -1.28063
C         15.98831        23.45270        -1.43659
C         14.74029        22.73183        -1.38318
C         16.00902        24.86775        -1.45806
C         14.72712        25.62317        -1.71315
C         15.99215        27.81281        -1.39544
C         14.72550        27.02434        -1.16896
C         16.07272        29.01906        -0.47039
C         14.78113        29.80373        -0.46358
C         16.03555        31.91701        -0.22803
C         14.82269        31.20896        -0.25538
C         16.04450        33.35557         0.01575
C         14.83651        34.02457         0.34009
C         16.09011        36.17022         0.53583
C         14.86874        35.43139         0.65427
C         16.06708        37.58395         0.73899
C         14.89017        38.22677         1.07753
C         18.43549         3.67096         1.58872
C         17.18567         4.38508         1.62645
C         18.47826         6.53920         1.96947
C         17.18697         5.80491         1.73165
C         18.48181         7.95889         1.45270
C         17.24705         8.66844         1.37908
C         18.46744        10.73838         0.81207
C         17.24987        10.05546         1.06991
C         18.46251        12.13156         0.46029
C         17.20402        12.85160         0.28714
C         18.48015        14.80381        -0.67455
C         17.19180        14.18546        -0.18127
C         18.44456        16.30537        -0.72826
C         17.18069        16.92173        -1.26955
C         18.43910        19.08218        -1.43643
C         17.15451        18.42046        -1.16975
C         18.44557        20.54389        -1.77847
C         17.18849        21.29990        -1.54971
C         18.47445        23.43581        -1.50966
C         17.21687        22.71531        -1.49054
C         18.48334        24.85969        -1.42067
C         17.23887        25.58729        -1.39851
C         18.48978        27.71924        -1.24221
C         17.26605        27.00224        -1.30234
C         18.50648        29.15949        -1.11264
C         17.29006        29.85485        -0.78450
C         18.47744        32.02320        -0.77807
C         17.25891        31.22063        -0.55293
C         18.53872        33.34211        -0.07939
C         17.26767        34.08763         0.04695
C         18.58255        36.19978         0.31038
C         17.30982        35.47440         0.27779
C         18.58374        37.60689         0.46550
C         17.30467        38.40649         0.48768
C         19.63985         4.34448         1.52369
C         20.90012         6.46413         1.35083
C         19.69935         5.75738         1.56413
C         20.92123         7.84661         1.23976
C         19.70688         8.61619         1.21947
C         20.91800        10.75147         0.74165
C         19.70877        10.02555         0.90995
C         20.91130        12.10482         0.48885
C         19.69168        12.82303         0.31217
C         20.82855        15.03136         0.17452
C         19.69832        14.22281        -0.01019
C         20.81078        16.38828        -0.10875
C         19.62057        17.05235        -0.56607
C         20.71434        19.30749        -0.46521
C         19.65361        18.45457        -0.88013
C         20.74744        20.64150        -0.76282
C         19.80325        21.25562        -1.77355
C         20.91115        23.46066        -1.62093
C         19.70520        22.74907        -1.59400
C         20.92490        24.84348        -1.52729
C         19.71915        25.56744        -1.42204
C         20.93388        27.74261        -1.36569
C         19.72876        27.01354        -1.33958
C         20.93705        29.13061        -1.32338
C         19.73893        29.85647        -1.21027
C         21.02877        32.08924        -0.94594
C         19.76060        31.33729        -1.14890
C         21.05853        33.35424        -0.49241
C         19.85344        34.04615         0.04027
C         21.02473        36.25515         0.26329
C         19.82861        35.52462         0.20392
C         21.00978        37.63812         0.44063
C         19.79105        38.31044         0.53434
O          3.93829        27.68448        -1.95607
O         18.92443        32.01255        -2.17330
O         19.28429        33.30492         1.19506
O         10.65376        31.04861         1.85630
O         18.42188        19.55460        -2.87880
O          7.63160        17.64392        -1.78529
O          1.51613        32.04169        -0.38154
O          2.97516        23.02205         0.79799
O         14.76697         9.06719        -0.13794
O          8.58370        24.26513        -3.02455
O         13.56819         8.21419         3.27821
H         12.66249         8.04384         3.63892
O          8.34872        19.48954         1.29584
H          8.38930        18.58846         1.70698
O         18.58057         6.67942         3.45205
H         19.43830         7.12042         3.63387
O         10.06845        22.21512        -3.16579
H          9.89633        23.00632        -3.72509
O          8.64532        29.72057        -2.08769
H          7.88065        29.32420        -2.56027
O         14.69320        25.79715        -3.20004
H         13.76951        26.02901        -3.44029
O         17.18298        16.64515        -2.75822
H         17.67018        17.38705        -3.18508
O         17.39864        39.48898         1.42453
H         17.50333        39.10786         2.32016
O          9.69485         4.26189         3.26902
H         10.39444         4.86042         3.61138
O         15.88096        11.11439         2.69482
H         16.66354        11.64139         2.96160
O          1.33138        32.86145         3.18702
H          1.39483        33.67887         3.72521
O         15.90608        28.29449        -2.76680
H         15.70640        27.50491        -3.32598
O          8.30662        16.67917         1.67590
H          7.55894        16.07980         1.93837
O          4.04053        10.39339        -2.28752
H          4.10946         9.43149        -2.46729
O         10.80960         8.17883         3.21239
H         10.57065         9.11942         3.36407
O          3.06736        18.85461         0.82736
H          3.58744        19.38588         1.46628
O         16.25472        28.48941         0.87863
H         16.28104        29.24757         1.49906
O          3.13155        18.63728        -2.81302
H          2.54804        18.16859        -3.44524
O         13.35732        14.55592        -1.96518
H         14.15232        14.93854        -2.39656
O         18.56875        14.36904        -2.09373
H         18.01137        15.00571        -2.61376
O          2.10232         5.62922         1.72559
H          1.28180         5.10648         1.85028
O         11.24637        36.23510        -0.52485
H         10.46908        36.75883        -0.81032
O         13.32466        32.26062        -1.76845
H         13.43462        31.41711        -2.25731
O         20.44064        21.06283        -3.06877
H         20.01861        20.26085        -3.46267
O          6.09928        14.96006         1.56658
H          5.22516        15.26608         1.89053
O          7.28738        14.31763        -1.83379
H          8.11212        13.91999        -2.18346
O          6.87133        26.11133        -3.01077
H          7.21527        25.40007        -3.59900
O          6.77915        22.32161        -3.04454
H          7.14607        23.00751        -3.64568
O         12.37821        35.18919         2.79085
H         13.17885        34.70555         3.08226
O          8.78586        32.78490         2.85542
H          9.54640        32.15741         2.94142
H          1.46110         2.29284        -0.53209
H         -0.63311         3.47993        -1.12616
H         -0.71000         5.94654        -1.23423
H         -0.91822         7.87417        -0.76470
H         -0.92449        10.30032        -1.04458
H         -0.84643        12.14479        -1.64106
H         -0.84380        14.56403        -1.87978
H         -0.82261        16.50244        -2.02170
H         -0.88112        18.93454        -1.92382
H         -0.82342        20.97739        -2.07843
H         -0.86511        23.39195        -1.64150
H         -1.01656        25.04359        -0.12407
H         -1.01931        27.45192         0.31697
H         -0.86436        29.15799         1.14497
H         -0.81194        31.45510         1.93405
H         -0.95740        33.62359         1.56330
H         -0.83894        36.07732         1.71052
H          0.46487        38.12003         2.15047
H          3.84732         2.39968         0.02508
H          2.64401        39.31390         2.25437
H          6.19101         2.47086         0.70569
H          5.11973        39.26957         2.15435
H          8.55088         2.50935         1.30769
H          7.57633        39.22612         2.06977
H         11.08054         2.54818         1.37241
H         10.00052        39.20820         2.05796
H         13.52587         2.59202         1.29006
H         12.48014        39.23295         1.82875
H         15.96770         2.60476         1.39831
H         14.89444        39.31715         1.22154
H         18.41241         2.57355         1.52890
H         17.19165        38.88775        -0.52632
H         20.57469         3.77946         1.38751
H         21.83488         5.89853         1.21736
H         21.88382         8.34151         1.05821
H         21.88467        10.23787         0.82584
H         21.87018        12.62525         0.36211
H         21.75273        14.59535         0.58059
H         21.73624        16.96435         0.01880
H         21.51592        18.89177         0.16274
H         21.58246        21.25266        -0.39173
H         21.85659        22.91524        -1.74028
H         21.89095        25.36279        -1.55391
H         21.89843        27.22559        -1.44398
H         21.89859        29.65791        -1.37855
H         21.96994        31.62126        -1.27063
H         22.02444        33.87820        -0.44541
H         21.99074        35.73762         0.19191
H         21.95505        38.19456         0.50098
H         19.76463        39.40124         0.66550
