         278
 CSIRO Nanostructure Databank - Neutral Graphene Oxide Data Set
C        -11.02103         0.74762        -1.30811
C         -9.89423         1.52182        -0.80341
C         -8.61724         0.71888        -0.67532
C         -7.55429         1.49878         0.07937
C         -6.33315         0.74568         0.47455
C         -5.06594         1.44885         0.86695
C         -3.78552         0.70080         1.00805
C         -2.49950         1.47259         1.26300
C         -1.16575         0.71316         1.31480
C          0.01340         1.49499         0.69713
C          1.30823         0.72849         0.89389
C          2.51711         1.45619         0.68372
C          3.69737         0.72405         0.36664
C          4.88526         1.45130         0.00531
C          6.00486         0.75761        -0.56048
C          7.02516         1.50342        -1.16267
C          8.74255         0.69413         0.09734
C          9.85165         1.28110        -0.81236
C         11.07866         0.60130        -0.21217
C         -9.90602         2.88719        -0.67462
C         -8.73974         3.69620        -0.32195
C         -7.42847         2.96885        -0.25482
C         -6.31602         3.66505         0.50625
C         -5.01033         2.91157         0.52091
C         -3.71975         3.64467         0.60278
C         -2.50167         2.96685         1.14230
C         -1.22732         3.70865         0.99745
C          0.03347         2.93053         1.19677
C          1.34489         3.63573         1.19315
C          2.55126         2.89498         0.73033
C          3.71470         3.59149         0.39646
C          4.87012         2.86727         0.00497
C          6.13994         3.59912        -0.17746
C          7.35584         2.83834        -0.66441
C          8.64358         3.53335        -0.97853
C          9.81943         2.79084        -0.94174
C         -8.74746         5.05924        -0.26444
C         -7.61956         5.93133         0.28735
C         -6.30676         5.15866         0.53603
C         -4.98321         5.77688         0.14379
C         -3.69881         5.12244         0.52295
C         -2.49563         5.76873         0.44431
C         -1.24593         5.04061         0.68621
C          0.06211         5.71032         0.32564
C          1.29656         5.12222         0.99520
C          2.55287         5.85096         0.69761
C          3.87454         5.07375         0.73225
C          4.97624         5.81275        -0.01336
C          6.10212         5.03400        -0.62377
C          7.44181         5.73043        -0.68915
C          8.61447         4.96152        -0.96733
C         -7.42428         7.28200        -0.38013
C         -6.21987         7.90178        -0.54517
C         -4.95087         7.12653        -0.48718
C         -3.60106         7.83647        -0.67273
C         -2.48628         7.27815         0.25883
C         -1.15425         7.87572        -0.21678
C          0.03729         7.25953         0.50221
C          1.18989         7.87525        -0.30644
C          2.52910         7.07085        -0.23591
C          3.73364         7.96142         0.13129
C          4.99697         7.16384        -0.07484
C          6.30884         7.90935        -0.04043
C          7.47667         7.10948        -0.56297
C         -6.10211         9.32929        -0.78731
C         -4.91221         9.99837        -0.70868
C         -3.64877         9.34427        -0.46695
C         -2.47105        10.03305        -0.22138
C         -1.18976         9.38782        -0.08156
C          0.01053        10.06290         0.01263
C          1.28937         9.37886        -0.10040
C          2.47176        10.03253        -0.29910
C          3.70972         9.25675        -0.72042
C          5.03270         9.98807        -0.63389
C          6.20200         9.34812        -0.48939
C        -11.03307        -0.60552        -1.33408
C        -10.06415        -1.47074        -0.55898
C         -8.80015        -0.71653        -0.14845
C         -7.53492        -1.48852         0.09708
C         -6.25746        -0.69915         0.08187
C         -4.93630        -1.40445         0.06744
C         -3.63521        -0.61575         0.24067
C         -2.50012        -1.41310         0.87316
C         -1.14801        -0.72243         0.71593
C          0.05668        -1.41815         1.32615
C          1.32978        -0.66886         1.04611
C          2.54227        -1.39271         0.83586
C          3.66845        -0.70137         0.35866
C          4.73910        -1.45238        -0.38120
C          6.00592        -0.71806        -0.81282
C          7.32021        -1.39793        -0.49185
C          8.47882        -0.75603        -0.17859
C          9.71627        -1.50580         0.29614
C         11.00512        -0.69825         0.13274
C         -9.76066        -2.82730        -1.14657
C         -8.57459        -3.54905        -0.92800
C         -7.39423        -2.90341        -0.33784
C         -6.16932        -3.53683        -0.26809
C         -4.93410        -2.88709         0.18204
C         -3.81058        -3.59755         0.53552
C         -2.59273        -2.89595         1.05007
C         -1.31905        -3.66817         1.33774
C          0.01157        -2.91170         1.42350
C          1.30888        -3.67015         1.24806
C          2.57675        -2.88418         0.94873
C          3.76911        -3.58680         0.39679
C          4.88551        -2.90536        -0.02879
C          6.13749        -3.57965        -0.34625
C          7.30768        -2.86058        -0.52768
C          8.60297        -3.54178        -0.60695
C          9.74937        -2.89685        -0.27554
C         -8.50507        -4.90767        -1.31052
C         -7.24253        -5.63099        -1.36813
C         -5.99670        -4.90459        -0.79992
C         -4.89921        -5.73534        -0.28512
C         -3.86540        -5.09057         0.56819
C         -2.66507        -5.90722         1.01646
C         -1.35514        -5.17100         1.28876
C         -0.01383        -5.93582         1.18963
C          1.14973        -5.02903         0.56453
C          2.48936        -5.84687         0.61578
C          3.69489        -5.04790         0.01339
C          5.01220        -5.86832         0.23379
C          6.33000        -5.04870        -0.01550
C          7.36734        -5.73898        -0.88469
C          8.64978        -4.96455        -1.13046
C         -7.16954        -7.09058        -1.43537
C         -5.98181        -7.74879        -1.22126
C         -4.83951        -7.06525        -0.62863
C         -3.70912        -7.93008        -0.18586
C         -2.62584        -7.39510         0.69981
C         -1.29924        -8.16351         0.87262
C         -0.14290        -7.25757         0.37230
C          1.21562        -8.09027         0.48077
C          2.33931        -7.16333        -0.19295
C          3.64376        -8.01193        -0.26132
C          4.83991        -7.11798        -0.63495
C          6.01791        -7.78808        -1.25520
C          7.28986        -7.02723        -1.28414
C         -5.89055        -9.19713        -1.42058
C         -4.71798        -9.85791        -1.35895
C         -3.43817        -9.09574        -1.11504
C         -2.26184        -9.93294        -0.69804
C         -1.26762        -9.47766         0.08326
C         -0.00269       -10.29098         0.25734
C          1.19205        -9.45903        -0.19884
C          2.24558        -9.99637        -0.84713
C          3.46853        -9.19630        -1.25357
C          4.78801        -9.94278        -1.31778
C          5.95065        -9.26602        -1.39682
O          5.02051        -7.00158        -2.06554
O          0.79458        -4.62826        -0.76957
H          0.60927        -5.44250        -1.30399
O         -8.41552        -1.10498         1.20125
O         -6.22432        -4.97701        -2.23190
O          8.55295         1.14016         1.22536
O          0.74053         3.16096         2.45042
O         -2.66089         2.32560         2.44522
O         -5.02504         5.92287        -1.33870
O         -1.33359         2.21950        -1.12685
H         -1.15014         2.56439        -2.03487
O          2.79016        -6.10678         1.97159
H          2.22406        -6.87592         2.28008
O         -4.19803         3.07527        -0.68937
O         -5.58013        -0.94436        -1.18990
O         -0.01171         7.64372         1.87158
H          0.77688         7.25734         2.33114
O         -0.05384         1.60090        -0.78428
O          5.60713         4.94789        -2.07035
O         -2.86943        -1.94545         2.15437
O         -3.72704        -5.59447         1.94624
O          0.66632         7.76869        -1.69626
O          5.66634        -0.99047        -2.25409
O          3.20615        -8.76296        -2.62330
H          3.95934        -8.16282        -2.87257
O         -0.83556         7.59493        -1.61702
O         -0.10103       -11.52137        -0.44296
H          0.57714       -12.13169        -0.09185
O         -8.13319         0.50786        -2.02953
O         -3.22944         7.80818        -2.01175
O         -7.37637         1.11169         1.45115
O          7.10021        -5.03102         1.28180
O          9.53763        -1.62504         1.74360
H          9.31579        -0.72315         2.07434
O          6.60035         4.22187        -2.83958
H          6.84674         4.87770        -3.53646
O         -0.01916        -2.05306         2.61186
O         -3.73012        -8.16907         1.24766
O          4.32355        -1.48331        -1.84923
O          7.12546         3.10423         0.76266
O          7.49530         1.14419        -2.36702
H          7.04580         0.32689        -2.67622
O          3.52706        -4.96957        -1.41428
H          2.65512        -4.54409        -1.59100
O          1.48460        -8.32528         1.80394
O          8.92699        -4.93985        -2.54255
H          8.17607        -4.50225        -2.99418
O          1.93325         5.95701         2.01880
O         -6.46573         4.38138         1.76906
O         -4.66069         0.86467         2.15110
O         -6.89231         2.91254        -1.67873
H         -7.85094         1.38338        -2.38989
O         -1.11135        -8.45554         2.24972
H         -0.12670        -8.43582         2.43233
O         -8.12891         6.31669         1.60175
H         -7.92548         5.57094         2.21397
O         -3.23374        -0.18652        -1.08200
H         -4.05133        -0.16283        -1.64135
O          1.91034        -6.83453        -1.49307
H          2.16508        -7.55686        -2.13201
O          2.25844        -3.46047         2.29522
O          5.12058        -6.37845         1.56346
H          5.14839        -5.62461         2.19488
O          3.57566         8.97223        -2.13432
H          3.08233         8.12299        -2.24968
O          0.32349        -6.25360         2.53255
H         -0.03474        -5.53465         3.10812
O          3.61553         8.33453         1.51958
H          4.52469         8.52126         1.84964
O         -1.45406        -4.47224         2.55900
O         -7.02824         4.21738        -2.28166
H         -6.14568         4.65832        -2.12090
O         -0.83954         0.54176         2.69913
H         -1.25056         1.27703         3.20921
O         -0.49378        -6.92182        -0.97525
H         -0.71118        -7.74464        -1.46809
O        -10.79551        -1.83197         0.65767
H        -10.12304        -1.86868         1.38172
O         -2.74467         7.82851         1.57226
H         -1.90493         7.77822         2.09102
O         -0.79612        -0.77299        -0.67660
H         -1.47722        -0.29416        -1.20721
O          9.78336         0.69316        -2.14228
H         10.56117         1.01102        -2.64574
O         -3.04180        -8.46939        -2.38401
H         -3.07366        -9.15664        -3.08243
O          0.27312         5.34707        -1.07384
H         -0.43461         5.78777        -1.61030
O          6.43915        -4.08781         2.18041
H          7.18668        -3.49858         2.44983
O          6.56032         8.02793         1.42056
H          6.63204         7.11740         1.78387
O          2.77807         6.50328        -1.54009
H          1.94306         6.04677        -1.81461
O          4.35908         5.08649         2.10393
H          3.56980         5.18189         2.68789
O          3.89154        -8.62812         0.99578
H          4.08292        -7.91513         1.65503
H         11.91858        -1.20861         0.47865
H         12.04606         1.13077        -0.19686
H         10.78161         3.32326        -1.03068
H          9.56819         5.50329        -1.07407
H          8.44767         7.62614        -0.63704
H          7.14509         9.91599        -0.53096
H          5.03214        11.06113        -0.88488
H          2.49830        11.13386        -0.27765
H          0.01664        11.16315         0.06276
H         -2.50613        11.13182        -0.13492
H         -4.91018        11.09516        -0.81171
H         -7.03106         9.89671        -0.94875
H         -8.34010         7.88991        -0.46004
H         -9.70672         5.58410        -0.40420
H        -10.85147         3.42608        -0.84747
H        -11.86241         1.30241        -1.75287
H        -11.89780        -1.12455        -1.77529
H        -10.60824        -3.36742        -1.59825
H         -9.43288        -5.43703        -1.57596
H         -8.07785        -7.65706        -1.68995
H         -6.82232        -9.73626        -1.65040
H         -4.67349       -10.94384        -1.53232
H         -2.13283       -10.90915        -1.19406
H          0.14260       -10.49095         1.35793
H          2.18386       -11.03905        -1.20256
H          4.78253       -11.04037        -1.40010
H          6.90343        -9.80763        -1.49981
H          8.14622        -7.47601        -1.81276
H          9.50896        -5.50232        -0.65235
H         10.71642        -3.41816        -0.34659
