         404
 CSIRO Nanostructure Databank - Neutral Graphene Oxide Data Set
C          1.86982         2.71890        -2.95624
C          1.68030         3.97191        -2.27078
C          3.07303         2.09145        -2.96162
C          2.62923         4.45271        -1.38746
C          1.42270         6.59858        -0.92794
C          1.34680         7.85858        -0.42942
C          2.59188         5.75241        -0.78865
C          2.49647         8.41341         0.37232
C          1.37024        10.56047         1.01184
C          1.38278        11.92841         1.43711
C          2.49617         9.92297         0.56320
C          2.55796        12.64537         1.55242
C          1.35299        14.84491         2.03971
C          1.38186        16.19782         2.05966
C          2.60602        14.02075         2.20098
C          2.62550        16.93885         2.06935
C          2.64477        18.35030         2.15656
C          4.23988         2.72384        -2.24537
C          3.74212         3.49364        -1.00771
C          5.33791         1.75585        -1.88345
C          4.93112         4.14920        -0.28369
C          3.79153         6.31964        -0.25061
C          3.78628         7.80006        -0.14564
C          4.99935         5.62285        -0.12045
C          5.09354         8.49932        -0.00445
C          3.75584        10.69252         0.53852
C          3.79326        12.01988         1.18613
C          5.07729         9.96545         0.32352
C          5.02406        12.68641         1.28633
C          3.85192        14.79900         1.83287
C          3.84889        16.22593         1.91458
C          5.04019        14.11405         1.54896
C          5.06841        16.95637         1.78533
C          3.83295        19.05865         2.08874
C          5.07325        18.38593         1.88729
C          6.33632         2.12028        -1.01093
C          6.20708         3.38548        -0.22676
C          7.56732         1.39455        -0.95753
C          7.45305         4.06024         0.28116
C          6.26611         6.28088         0.16504
C          6.31432         7.70112         0.25362
C          7.48944         5.54695         0.37951
C          7.50968         8.38287         0.57932
C          6.31039        10.56893         0.84356
C          6.27759        11.99172         1.10470
C          7.48024         9.81069         0.86232
C          7.47670        12.71698         1.14605
C          6.27163        14.83971         1.41872
C          6.28718        16.26191         1.55315
C          7.48527        14.14430         1.19513
C          7.50817        16.98185         1.42307
C          6.29476        19.08862         1.77252
C          7.51199        18.41583         1.53748
C          8.74699         1.95135        -0.44883
C          8.72111         3.25263         0.26507
C          9.98724         1.34037        -0.68007
C         10.02838         3.94656         0.53485
C          8.71135         6.21683         0.62380
C          8.73815         7.65034         0.69952
C          9.98581         5.44015         0.82452
C          9.98022         8.38559         0.79321
C          8.75201        10.48742         1.14972
C          8.75877        12.00997         1.19938
C         10.00006         9.78514         0.80407
C          9.96819        12.72845         0.75623
C          8.71415        14.86194         1.05221
C          8.72094        16.28498         1.15358
C          9.92255        14.17047         0.72425
C          9.93713        17.01207         0.97811
C          8.74161        19.11865         1.39220
C          9.94179        18.44962         1.10817
C         11.25293         1.95205        -0.43109
C         11.29807         3.27983         0.11742
C         12.36387         1.21085        -0.97965
C         12.45151         4.13000        -0.02795
C         11.35284         6.16554         0.87871
C         11.27830         7.68958         0.82784
C         12.38707         5.53373        -0.04152
C         12.49118         8.48179         0.40097
C         11.17617        10.56797         0.52042
C         11.10943        12.00877         0.42586
C         12.38030         9.93203         0.17026
C         12.27233        12.71715        -0.14258
C         11.08942        14.91816         0.45521
C         11.12415        16.32624         0.62649
C         12.26216        14.24274        -0.10080
C         12.36278        17.04674         0.42427
C         11.16965        19.14971         0.91972
C         12.36253        18.49265         0.59158
C         13.71167         1.46692        -0.72828
C         13.75749         3.57016        -0.19314
C         14.90290         1.09461        -1.37383
C         14.85594         4.20499        -0.78194
C         13.55763         6.28957        -0.53648
C         13.60105         7.78911        -0.32462
C         14.83834         5.62392        -0.87144
C         14.89546         8.47485        -0.39335
C         13.58794        10.65169        -0.09478
C         13.57659        12.04104        -0.22200
C         14.87649         9.92581        -0.12284
C         14.74793        12.80971        -0.58527
C         13.54915        14.95635        -0.16931
C         13.54055        16.37007         0.09233
C         14.68493        14.25935        -0.57775
C         14.80881        17.12332         0.00751
C         13.56436        19.22984         0.37373
C         14.77163        18.60444         0.04241
C         16.08264         1.91034        -1.25726
C         15.99623         3.41254        -1.28415
C         17.33715         1.33958        -1.41399
C         17.29227         4.23276        -1.50341
C         16.03157         6.37229        -1.07615
C         16.03743         7.80870        -0.82098
C         17.27648         5.69869        -1.30360
C         17.26710         8.54746        -1.03656
C         16.10232        10.72443        -0.54601
C         15.94134        12.14034        -0.89673
C         17.28904         9.96838        -0.99850
C         17.11141        12.83613        -1.47834
C         15.86687        15.03384        -1.03511
C         16.01074        16.44721        -0.56872
C         17.09561        14.33141        -1.51606
C         17.05976        17.31161        -1.27229
C         15.97951        19.30208        -0.15821
C         17.17193        18.66245        -0.58918
C         18.55900         2.08238        -1.28595
C         18.55444         3.51173        -1.32559
C         19.76119         1.40415        -1.01969
C         19.74002         4.25085        -1.10262
C         18.50650         6.40055        -1.41551
C         18.43533         7.85660        -1.45746
C         19.75779         5.68246        -1.29927
C         19.51827         8.65510        -1.89134
C         18.47725        10.68680        -1.22388
C         18.44104        12.14316        -1.48910
C         19.66250        10.01968        -1.59203
C         19.71436        12.89645        -1.35742
C         18.42290        15.05408        -1.57133
C         18.40247        16.56469        -1.42876
C         19.68325        14.31446        -1.29584
C         19.65956        17.22111        -1.03593
C         18.39767        19.30401        -0.52606
C         19.64400        18.62653        -0.75921
C         20.94339         2.10974        -0.69531
C         20.93634         3.54917        -0.74641
C         22.11569         1.43010        -0.30570
C         22.10919         4.25862        -0.38859
C         21.03338         6.32935        -1.14858
C         21.30463         7.64541        -1.61484
C         22.13826         5.67550        -0.53162
C         22.28790         8.48894        -1.08604
C         20.96206        10.73685        -1.62431
C         20.93143        12.18763        -1.29867
C         22.30011         9.95498        -1.32748
C         22.15049        12.88146        -1.01666
C         20.88581        15.03603        -1.12062
C         20.86554        16.48743        -1.01585
C         22.11570        14.32053        -0.94695
C         22.09183        17.19109        -0.83053
C         20.85647        19.31661        -0.66114
C         22.09134        18.62679        -0.74196
C         23.30880         2.11895         0.03801
C         23.29781         3.57619         0.01460
C         24.45623         1.41452         0.41416
C         24.41634         4.32365         0.40993
C         23.29134         6.43316        -0.16580
C         23.32695         7.85549        -0.33864
C         24.42349         5.75624         0.37797
C         24.47143         8.60742         0.06062
C         23.39362        10.72363        -0.68266
C         23.35104        12.16622        -0.69143
C         24.45746        10.03297        -0.08228
C         24.53059        12.90095        -0.30524
C         23.32344        15.04472        -0.72424
C         23.31804        16.47785        -0.71448
C         24.53627        14.34808        -0.43040
C         24.53460        17.19738        -0.55899
C         23.31350        19.32713        -0.70992
C         24.54297        18.63652        -0.64961
C         25.72582         2.09509         0.61419
C         25.68562         3.61672         0.65094
C         26.91506         1.42013         1.14812
C         26.75016         4.32895         1.42041
C         25.57338         6.51601         0.75703
C         25.61269         7.91475         0.59166
C         26.72060         5.82936         1.39219
C         26.86484         8.64351         0.78808
C         25.56602        10.79503         0.60113
C         25.67931        12.22606         0.14762
C         26.88461        10.05102         0.62210
C         26.90271        12.91439         0.42819
C         25.70225        15.08069        -0.14304
C         25.74043        16.50154        -0.27799
C         26.86630        14.39619         0.44234
C         26.97426        17.22672        -0.20421
C         25.77446        19.32250        -0.67539
C         26.99791        18.63009        -0.52163
C         28.08279         2.12433         1.40819
C         28.04077         3.59661         1.65595
C         29.32050         1.46738         1.57806
C         29.30904         4.36872         1.65246
C         28.04935         6.55575         1.49973
C         28.07613         7.96081         1.05491
C         29.31010         5.77459         1.54922
C         29.32048         8.64502         1.05217
C         28.10515        10.76257         0.70194
C         28.08903        12.21192         0.66625
C         29.33913        10.06079         0.86647
C         29.36828        12.92072         0.89838
C         28.14317        15.19303         0.65030
C         28.20028        16.57035         0.10173
C         29.41148        14.42389         0.88035
C         29.41649        17.23283        -0.08283
C         28.23748        19.29220        -0.67857
C         29.45579        18.59614        -0.54251
C         30.53241         2.18844         1.64618
C         30.53152         3.64131         1.61755
C         31.75069         1.48666         1.63856
C         31.77041         4.33241         1.52910
C         30.54287         6.50012         1.48133
C         30.52906         7.91272         1.31887
C         31.79058         5.76488         1.50641
C         31.77882         8.67104         1.41733
C         30.60425        10.77145         0.82841
C         30.63722        12.17691         0.71512
C         31.82997        10.06392         0.95990
C         31.87553        12.86008         0.56261
C         30.71840        15.11005         0.60531
C         30.70215        16.55115         0.16464
C         31.91957        14.28028         0.34059
C         31.90697        17.12130        -0.43979
C         30.70322        19.21029        -0.83684
C         31.91254        18.46419        -0.85877
C         32.99546         2.14231         1.47258
C         32.99931         3.59921         1.41186
C         34.17807         1.39408         1.40801
C         34.21392         4.28845         1.29566
C         33.03648         6.43135         1.40592
C         33.10861         7.89524         1.45693
C         34.25345         5.71568         1.29249
C         34.31505         8.57084         0.96000
C         33.07637        10.71042         0.77629
C         33.09424        12.11786         0.51708
C         34.31186         9.96568         0.74347
C         34.33205        12.79169         0.28184
C         33.09799        14.89527        -0.06900
C         33.07376        16.23758        -0.75657
C         34.32776        14.17369        -0.05389
C         34.38649        16.96981        -0.76888
C         33.15768        19.05388        -1.27783
C         34.36925        18.36220        -1.18319
C         35.44904         1.98979         1.04409
C         35.45105         3.54577         1.00392
C         36.74280         1.32982         1.18065
C         36.74979         4.20013         1.28366
C         35.48511         6.42825         1.06404
C         35.49380         7.79563         0.79223
C         36.76909         5.71690         1.23262
C         36.72795         8.44011         0.21058
C         35.56057        10.64930         0.48295
C         35.56836        12.07076         0.31330
C         36.77245         9.93581         0.38691
C         36.79870        12.76199         0.14109
C         35.56558        14.85776        -0.27962
C         35.57167        16.28203        -0.60208
C         36.77076        14.16497        -0.12448
C         36.83995        16.93601        -0.89727
C         35.60592        18.98343        -1.52219
C         36.82053        18.29666        -1.43404
C         37.95522         2.03344         1.03502
C         37.98617         3.44632         1.08206
C         39.20384         1.31187         0.82192
C         39.24535         4.19360         1.17528
C         38.04029         6.38648         0.87373
C         38.02605         7.74514         0.54815
C         39.25728         5.64764         0.89052
C         39.25283         8.44092         0.35812
C         38.01507        10.61182         0.24433
C         38.04413        12.03885         0.17259
C         39.25253         9.87228         0.18875
C         39.29874        12.71273         0.05817
C         38.03254        14.92985        -0.10476
C         38.03396        16.27885        -0.70958
C         39.33052        14.19747         0.09396
C         39.27080        16.73875        -1.44555
C         38.04305        18.90651        -1.81501
C         39.26428        18.21121        -1.79259
C         40.39176         1.94497         0.67459
C         40.53587         3.38964         0.93157
C         41.67656         4.13897         0.39248
C         40.47027         6.28860         0.56747
C         40.47840         7.71264         0.37287
C         41.65674         5.49373         0.30833
C         41.69187         8.43563         0.17506
C         40.48286        10.55883         0.03176
C         40.50124        11.99791        -0.04348
C         41.69186         9.79680         0.00733
C         41.75715        12.72255        -0.16668
C         40.63113        14.91714        -0.19105
C         40.60186        16.27081        -0.87482
C         41.83490        14.07235        -0.22752
C         41.79034        16.85435        -1.53609
C         40.46227        18.78358        -2.22662
C         41.69233        18.06442        -2.16593
O         32.52594         8.46944         2.66798
O         16.42343         3.84183        -2.61614
O         40.74612        16.16547         0.56831
O         20.51122         8.07413        -2.68466
O         16.12616        14.86332        -2.47473
O         13.14223         7.25494        -1.61031
O         18.52812        15.92306        -2.74561
O         11.95450        13.50538        -1.33996
O          9.96684         4.46321         1.91616
O         35.40859         2.80282        -0.21669
O          4.47034        10.73810        -0.75718
O         38.65241        14.79513         1.24286
O         15.81548        10.42463         0.88152
O          4.45232         8.32033        -1.32868
O         12.24317         8.21199         1.80741
O         17.66630        12.31960        -2.74399
O         27.20411        15.01794         1.74460
O         29.41170        13.71828         2.15373
O         27.06569         3.83472         2.74968
O         13.96000         2.33112         0.37493
O         21.91912        10.39479        -2.66236
O         36.79195         5.00272         2.51624
O          5.25559         3.35526         0.91016
O         40.12796         3.78954         2.27703
O          8.87534        11.20116         2.42908
O         26.15531         2.95693        -0.55884
O         30.95794        16.16741         1.59550
O          7.88648         3.29505         1.46013
O         27.14682         6.39816         2.66024
O         15.91338        16.57444         0.87043
O         36.57933         8.23742        -1.25154
H         37.31739         8.71522        -1.68745
O         39.18810        16.01829        -2.73308
H         38.46441        16.42584        -3.25520
O         11.95719         5.87096         2.16367
H         11.49936         5.06346         2.51280
O         25.14983        10.88198         2.01913
H         25.84288        11.38661         2.49765
O         32.83311        15.86922        -2.18962
H         32.94687        16.69156        -2.71494
O          2.38979         7.86038         1.72690
H          1.51505         8.10990         2.09245
O          2.71737        13.73985         3.64518
H          2.81822        14.60214         4.10167
O         16.55262        17.59435        -2.59160
H         16.77378        16.81154        -3.15325
O          4.83835         3.71651        -3.14057
H          5.01822         3.28153        -4.00004
O          3.12672         2.53980        -0.12116
H          3.75253         2.40852         0.63396
H          1.02852         2.30941        -3.53498
H          0.78425         4.55895        -2.51809
H          3.23000         1.17174        -3.54598
H          0.54986         6.19055        -1.45752
H          0.42922         8.45242        -0.55483
H          0.41662        10.01273         1.06840
H          0.42507        12.37365         1.73815
H          0.38082        14.33112         2.04097
H          0.44132        16.76958         2.03711
H          1.69322        18.88829         2.27875
H          5.45335         0.83378        -2.47642
H          3.82587        20.15543         2.16560
H          7.63443         0.44996        -1.51919
H          6.29269        20.18601         1.85404
H          9.98639         0.36215        -1.18447
H          8.74295        20.21533         1.48271
H         12.11512         0.39840        -1.67864
H         11.17475        20.24523         1.02398
H         14.95964         0.17141        -1.96870
H         13.52887        20.32738         0.44619
H         17.41297         0.24355        -1.46625
H         16.01908        20.37515         0.08643
H         19.76262         0.30508        -0.98175
H         18.44119        20.34096        -0.15845
H         22.11193         0.33029        -0.28143
H         20.85458        20.40601        -0.51249
H         24.40425         0.32619         0.56356
H         23.30803        20.42681        -0.70751
H         26.93644         0.31976         1.14428
H         25.78466        20.41164        -0.82780
H         29.35666         0.36914         1.52277
H         28.24815        20.35468        -0.96209
H         31.72973         0.38721         1.66678
H         30.71855        20.26589        -1.14373
H         34.15150         0.32689         1.67286
H         33.16092        20.10398        -1.60429
H         36.76755         0.24490         1.35825
H         35.59800        20.02297        -1.88218
H         39.14177         0.22384         0.67276
H         38.03205        19.95656        -2.14491
H         41.28805         1.38009         0.37639
H         42.55407         3.57647         0.03977
H         42.54964         6.00209        -0.08038
H         42.65354         7.90635         0.18274
H         42.65673        10.30230        -0.12390
H         42.69430        12.15221        -0.20028
H         42.81623        14.56287        -0.29081
H         42.77251        16.38156        -1.39596
H         40.46327        19.81642        -2.60393
H         42.59391        18.53173        -2.58764
