         490
 CSIRO Nanostructure Databank - Neutral Graphene Oxide Data Set
C         37.60566        49.98397         0.95184
C         36.40318        50.68389         1.07742
C         37.59958        52.76512         0.82449
C         36.40331        52.07835         1.02466
C         40.17659        48.53408         1.19713
C         40.13553        49.92134         0.59006
C         38.81977        50.66074         0.77989
C         40.07592        52.79952         0.43846
C         38.81725        52.07361         0.68414
C         40.07266        54.15030         0.02413
C         42.62020        48.66113         1.29896
C         41.36119        47.96944         1.51718
C         42.61827        50.01491         1.03759
C         41.29522        50.74736         1.16095
C         42.53377        52.83898         0.41785
C         41.31128        52.14955         0.60798
C         42.51023        54.21722         0.06634
C         41.25915        54.84222        -0.14351
C         45.04172        45.82885         0.70466
C         43.88897        46.50392         0.92799
C         45.12314        48.65052         1.04642
C         43.90495        47.89553         1.50316
C         45.09578        50.06221         0.87281
C         43.83785        50.75567         0.83103
C         45.02017        52.85726         0.32478
C         43.80565        52.14788         0.54851
C         44.99775        54.26883         0.05456
C         43.75512        54.95173        -0.05969
C         44.95122        57.05108        -0.39048
C         43.76563        56.34755        -0.28379
C         47.56352        44.27789         0.89427
C         47.53501        45.72638         0.72899
C         46.33541        46.46482         0.80738
C         47.54744        48.61695         0.78434
C         46.34207        47.92290         0.86708
C         47.62074        50.11343         0.97443
C         46.30541        50.79442         0.69405
C         47.50347        52.89079         0.13184
C         46.27630        52.16970         0.40027
C         47.47748        54.28935        -0.08570
C         46.22243        54.99312        -0.09766
C         47.44952        57.13377        -0.43738
C         46.20325        56.39789        -0.30722
C         47.46280        58.55209        -0.51712
C         49.96046        44.17641         0.22664
C         48.70279        43.56537         0.78047
C         50.00066        45.68850         0.40683
C         48.78919        46.39341         0.59836
C         50.03597        48.61298         0.33966
C         48.79089        47.86182         0.72527
C         49.96342        50.05876        -0.01628
C         48.78146        50.77268         0.25296
C         49.92604        52.86781        -0.38845
C         48.73446        52.17124        -0.00227
C         49.89760        54.27757        -0.51160
C         48.69357        54.99934        -0.34458
C         49.90794        57.17333        -0.62398
C         48.68207        56.43862        -0.48329
C         49.89355        58.59141        -0.69004
C         48.64074        59.25794        -0.63279
C         52.68163        41.71285         1.48520
C         51.41039        42.28100         1.19116
C         52.47737        44.21300         0.12740
C         51.26984        43.53272         0.64058
C         52.45478        45.68141        -0.02262
C         51.21672        46.36682         0.16457
C         52.42171        48.62420        -0.00110
C         51.14618        47.80820        -0.28849
C         52.36761        49.92801        -0.82913
C         51.12560        50.71428        -0.47376
C         52.39519        52.80439        -0.76792
C         51.15719        52.13238        -0.57470
C         52.42291        54.25479        -0.97374
C         51.12655        55.01390        -0.86708
C         52.37607        57.16605        -0.67116
C         51.16631        56.48190        -0.66483
C         52.37461        58.60180        -0.79719
C         51.13896        59.31016        -0.83244
C         52.36876        61.40249        -1.12207
C         51.17735        60.72141        -0.97279
C         55.23415        40.76183         2.55980
C         55.15309        41.92405         1.71288
C         53.89394        42.33628         1.16917
C         55.05130        44.36090         0.14480
C         53.84467        43.54687         0.32543
C         54.94444        45.69543        -0.30065
C         53.67085        46.36222        -0.23482
C         54.95966        48.53662        -0.62680
C         53.71417        47.83437        -0.16972
C         54.85168        49.95858        -1.05201
C         53.64219        50.71526        -0.70522
C         54.90973        52.82496        -0.89510
C         53.64414        52.09946        -0.80397
C         54.88794        54.27672        -0.74660
C         53.70472        54.96452        -0.75304
C         54.88576        57.14501        -1.07121
C         53.69000        56.44022        -0.40437
C         54.87344        58.61935        -0.71888
C         53.59398        59.32739        -0.93429
C         54.87370        61.41312        -1.42606
C         53.61222        60.71708        -1.11952
C         54.81187        62.67026        -2.05945
C         57.62343        41.22499         3.14675
C         56.36792        40.40778         3.20921
C         57.57126        42.28927         2.05287
C         56.36592        42.67004         1.47108
C         57.47303        44.51090         0.21862
C         56.32882        43.84127         0.58148
C         57.36324        45.52517        -0.89243
C         56.14978        46.41007        -0.70114
C         57.36105        48.52145        -1.34822
C         56.16386        47.76234        -1.00655
C         57.39433        49.91288        -1.28600
C         56.13755        50.69782        -1.27808
C         57.38864        52.85808        -1.08129
C         56.11680        52.15044        -1.03263
C         57.41048        54.24265        -0.94136
C         56.19627        54.98383        -0.43204
C         57.41029        57.15190        -0.82514
C         56.20221        56.45236        -0.80628
C         57.44451        58.63657        -0.73052
C         56.15256        59.39461        -0.74110
C         57.33444        61.38970        -1.73674
C         56.13880        60.78557        -1.25093
C         57.18167        62.57743        -2.48021
C         55.95310        63.23706        -2.60644
C         59.90418        38.05344         2.87075
C         58.81611        38.83423         3.01140
C         60.14162        40.90458         2.46555
C         58.88859        40.32376         3.04992
C         60.13828        42.29505         1.88702
C         58.82296        43.03729         1.76298
C         59.99798        44.62549         0.09165
C         58.77035        44.33251         0.94511
C         59.94862        45.72630        -0.76242
C         58.64876        46.30452        -1.18709
C         59.91710        48.53293        -1.86334
C         58.61607        47.76027        -1.59762
C         59.86785        49.99123        -1.49310
C         58.62665        50.67869        -1.35943
C         59.87361        52.83947        -1.55892
C         58.59236        52.09523        -1.29087
C         59.89094        54.29379        -1.16824
C         58.60695        55.03358        -1.41826
C         59.89880        57.15756        -1.00927
C         58.64624        56.46866        -0.97059
C         59.96958        58.57083        -1.12417
C         58.72086        59.35736        -1.01921
C         60.05716        61.42848        -1.67421
C         58.68525        60.72665        -1.63194
C         60.17453        62.91399        -1.77398
C         59.22717        63.68745        -2.43259
C         60.24633        65.79611        -1.81560
C         59.20836        65.12418        -2.36561
C         62.36892        36.36764         2.47249
C         62.39671        37.73231         2.23642
C         61.30576        38.63600         2.79765
C         62.40334        40.49525         1.33768
C         61.19816        39.94293         2.01323
C         62.46365        41.93045         0.99924
C         61.31078        42.72547         1.08010
C         62.44864        44.44751        -0.20904
C         61.25674        43.96053         0.36240
C         62.46516        45.69636        -1.05068
C         61.15658        46.45253        -1.07988
C         62.40925        48.54016        -1.41644
C         61.16263        47.80798        -1.37513
C         62.40405        50.01264        -1.75839
C         61.09611        50.69195        -1.40522
C         62.29705        52.73395        -0.70559
C         61.08736        52.05884        -1.17485
C         62.29260        54.21860        -0.54830
C         61.05701        54.96593        -0.89651
C         62.35561        57.08311        -0.71749
C         61.11354        56.40914        -0.90583
C         62.39355        58.51948        -0.75545
C         61.20948        59.25753        -1.04883
C         62.41652        61.39353        -0.78720
C         61.24507        60.69823        -1.13366
C         62.42867        62.84820        -0.77954
C         61.33022        63.58081        -1.24479
C         62.43573        65.73275        -0.52939
C         61.52647        65.06385        -1.53029
C         62.43259        67.14556        -0.32103
C         64.66279        36.08626         1.69156
C         63.46907        35.54559         2.15215
C         64.75571        37.50274         1.49746
C         63.59087        38.31841         1.69392
C         64.83535        40.30808         0.91768
C         63.64134        39.70168         1.34247
C         64.89131        41.69169         0.48234
C         63.68723        42.45771         0.48404
C         64.92454        44.41525        -0.42173
C         63.67749        43.78419        -0.03617
C         64.94011        45.78504        -0.76254
C         63.64430        46.54499        -0.60687
C         64.87218        48.62969        -1.29262
C         63.62529        47.91797        -1.21644
C         64.87895        50.00745        -1.19175
C         63.61977        50.72557        -1.19078
C         64.77213        52.69620        -0.12221
C         63.58166        52.02122        -0.76935
C         64.78947        54.20697        -0.31092
C         63.59289        54.92679        -0.47903
C         64.72511        57.03403         0.15226
C         63.55078        56.34221        -0.46748
C         64.75957        58.51898        -0.09145
C         63.61753        59.22695        -0.45464
C         64.81015        61.39004        -0.13421
C         63.62183        60.67956        -0.44463
C         64.79168        62.82584        -0.12169
C         63.62468        63.54312        -0.37007
C         64.63305        65.62823         0.53744
C         63.56723        64.98498        -0.11349
C         64.43267        66.98794         1.17015
C         63.38514        67.77180         0.43323
C         66.49800        33.05402         0.30785
C         65.57332        33.78921         0.94112
C         67.11347        35.82578         0.93446
C         65.81772        35.19769         1.35676
C         67.30649        37.33559         1.06904
C         65.98547        38.13284         1.11948
C         67.33211        40.15593         0.55835
C         66.00960        39.50926         0.88529
C         67.33904        41.56723        -0.00476
C         66.11787        42.29136         0.02071
C         67.36400        44.32115        -0.71781
C         66.13342        43.66946        -0.38982
C         67.35240        45.70875        -1.04799
C         66.14797        46.43836        -1.06518
C         67.38700        48.65113        -1.28308
C         66.13142        47.86216        -1.60030
C         67.37496        50.00147        -1.08887
C         66.11551        50.73791        -0.94503
C         67.32532        52.70879         0.03988
C         66.08329        52.02805        -0.47871
C         67.30245        54.21135        -0.15848
C         66.05189        54.91986        -0.20449
C         67.30906        57.10001        -0.15544
C         66.02919        56.31899        -0.10945
C         67.24591        58.46254         0.51093
C         65.95585        59.23199         0.36734
C         67.23232        61.34208         0.50362
C         66.01972        60.69589         0.24246
C         67.31449        62.81493         0.40899
C         66.05748        63.56883         0.06651
C         67.14363        65.67658         1.08748
C         65.96632        65.01356         0.44830
C         66.85780        66.87321         1.98367
C         65.75023        67.78413         1.39200
C         66.67416        69.55029         2.85214
C         65.58166        68.96745         2.32122
C         68.98771        31.43028         0.08017
C         69.00016        32.78378        -0.26350
C         67.74066        33.63082        -0.31692
C         69.16796        35.62665        -0.51079
C         68.04222        35.05930         0.07502
C         69.20876        37.10291        -0.84643
C         68.16729        37.87426        -0.05449
C         69.82547        40.05648        -0.97780
C         67.99510        39.17117        -0.35611
C         69.88358        41.45489        -0.41086
C         68.54690        42.18700        -0.43653
C         69.86878        44.26308        -0.91610
C         68.58812        43.56963        -0.73388
C         69.89268        45.67700        -1.03209
C         68.63489        46.39499        -1.32663
C         69.92033        48.60833        -1.08612
C         68.66238        47.90620        -1.42342
C         69.90466        50.00448        -0.90889
C         68.65162        50.80759        -1.20184
C         69.81708        52.81157        -0.24918
C         68.61604        52.11878        -0.46135
C         69.80003        54.20876         0.09866
C         68.52620        54.92204         0.06789
C         69.70379        57.00203         0.84757
C         68.51939        56.30635         0.23174
C         69.71228        58.51076         0.69684
C         68.51402        59.21282         0.61482
C         69.65929        61.34941         1.04772
C         68.46407        60.63820         0.73587
C         69.61683        62.75914         1.34657
C         68.43282        63.50035         1.09297
C         69.44055        65.56454         1.97204
C         68.36215        64.88583         1.40612
C         69.37634        66.98368         2.24484
C         68.12165        67.66071         2.26080
C         69.21099        69.73436         2.96338
C         68.01598        68.98720         2.67209
C         69.15925        71.10439         3.33234
C         71.34319        31.24473        -0.45591
C         70.15436        30.66282        -0.00452
C         71.37421        32.59152        -0.80512
C         70.20946        33.38769        -0.71550
C         71.37170        35.46138        -1.60236
C         70.23079        34.81165        -1.00001
C         71.57987        36.80401        -1.51475
C         70.66716        37.66669        -0.66825
C         72.14377        39.86687        -0.59808
C         70.86083        39.18516        -0.84053
C         72.27287        41.20715        -0.77595
C         71.06128        42.07330        -1.15243
C         72.31054        44.27662        -0.96063
C         71.10830        43.56397        -0.93105
C         72.31886        45.66867        -0.93348
C         71.11330        46.39705        -0.99179
C         72.29976        48.57165        -0.62343
C         71.11735        47.86316        -0.92967
C         72.29322        49.94703        -0.46516
C         71.10168        50.69472        -0.60530
C         72.26712        52.87431        -0.26790
C         71.08032        52.13528        -0.40706
C         72.24178        54.23080         0.01909
C         71.01849        54.92587         0.21167
C         72.17134        57.10805         0.57480
C         71.01547        56.34770         0.48634
C         72.14637        58.49327         0.84689
C         70.94433        59.21402         0.89871
C         72.03357        61.34294         1.60768
C         70.90036        60.64456         1.16242
C         71.96057        62.69095         1.98218
C         70.77514        63.41190         1.86377
C         71.90780        65.67631         2.19054
C         70.67993        64.82241         2.40458
C         71.83500        67.02026         2.31350
C         70.56670        67.70803         2.49866
C         71.65839        69.86259         3.12295
C         70.49013        69.09714         2.84717
C         71.57284        71.19244         3.48448
C         70.31365        71.82002         3.58797
O         66.91832        65.86700        -0.34457
O         68.71611        47.08333        -2.65256
O         59.71649        43.25449         2.92146
O         61.28342        39.80200         0.57603
O         59.47846        60.76280        -2.85403
O         55.28786        50.24726        -2.42140
O         58.25155        59.21013         0.37153
O         55.46516        59.08046         0.52980
O         58.55906        46.69519        -2.61562
O         67.05300        63.30755        -0.97001
O         66.42422        58.65492         1.69257
O         53.10535        43.44155        -0.95203
O         59.96033        40.84951         3.91603
O         49.79771        48.35129         1.73655
O         54.70125        48.34632         0.81367
O         68.59055        39.67591        -1.52428
O         62.08206        53.36688         0.65141
O         58.23539        63.11139        -3.22991
O         51.68664        54.66989        -2.20035
O         66.95894        35.24090         2.30012
O         67.53495        57.45636        -1.58714
H         67.58113        56.61766        -2.09529
O         61.75828        38.92659         4.14281
H         61.13189        39.59214         4.52221
O         62.48297        50.11830        -3.21263
H         61.76158        49.54366        -3.57109
O         49.87974        43.95366        -1.22545
H         50.78379        44.04455        -1.59719
O         70.82567        41.89396        -2.57758
H         71.55550        42.33043        -3.06407
O         64.59319        52.50019         1.33288
H         63.69895        52.87713         1.54095
O         56.30250        54.97951         1.03649
H         55.58574        55.57532         1.36953
O         66.17055        68.33573         0.13332
H         66.43002        67.58105        -0.45283
O         62.72012        45.29074        -2.42505
H         61.96908        44.73769        -2.72501
O         53.92887        56.53675         1.03506
H         53.10309        56.30087         1.50713
O         66.42918        66.33047         3.26013
H         65.44632        66.41764         3.32535
O         71.00165        37.41469         0.72223
H         71.87432        37.81923         0.90838
O         67.32928        52.48308         1.49832
H         66.39307        52.58204         1.80564
O         64.47063        56.87566         1.61037
H         65.18096        57.39450         2.06772
O         58.41938        55.12613        -2.88509
H         58.85628        54.32781        -3.28017
O         44.03605        47.72698         2.96866
H         44.18132        48.61741         3.35370
O         67.38459        33.69485        -1.75047
H         68.08745        34.20638        -2.20848
O         58.76923        45.43058         1.91967
H         59.35002        45.14101         2.66233
O         66.12079        47.72601        -3.05836
H         66.99666        47.33784        -3.30849
O         41.03099        50.87634         2.59078
H         41.72077        51.45744         2.97350
O         57.70962        41.94159         4.40525
H         58.59932        42.36951         4.41827
O         69.54258        56.77373         2.30397
H         70.32735        57.16462         2.74462
O         54.67550        57.11215        -2.50903
H         54.55205        56.17848        -2.78504
O         47.88911        50.28838         2.41860
H         48.70839        49.76704         2.60493
O         70.31106        41.39762         0.96968
H         69.57435        40.99661         1.50334
O         57.09126        44.71135        -2.07761
H         57.25031        45.29273        -2.85664
O         40.35835        49.79114        -0.84013
H         39.59882        49.30558        -1.22315
O         67.98647        37.57479         2.33156
H         67.70746        36.84451         2.93720
O         68.87540        37.13668        -2.25297
H         68.74264        38.08355        -2.49768
O         52.33278        49.00790         1.38186
H         53.25133        49.04456         1.73807
O         63.47086        46.76788         0.82752
H         64.19443        47.35199         1.13715
O         60.09385        48.56762        -3.32766
H         59.78854        47.68829        -3.65778
O         63.87847        66.74690         2.53175
H         63.03371        66.25986         2.42031
O         68.73888        51.17132        -2.63195
H         68.71232        50.33675        -3.14809
O         50.82300        47.72865        -1.69273
H         51.60012        47.39719        -2.18858
O         62.27361        65.10445        -2.80938
H         61.74611        64.61189        -3.47407
O         59.95390        52.90190        -3.07105
H         59.98350        51.97180        -3.39080
O         68.07615        40.22088         1.81872
H         68.11268        39.30623         2.21019
O         52.33594        49.56763        -2.24479
H         52.49922        50.38376        -2.76426
O         70.55424        64.65396         3.86688
H         70.36379        65.54002         4.24372
H         37.58195        48.88617         0.99862
H         35.46287        50.13473         1.22379
H         37.58122        53.86306         0.78804
H         35.46292        52.63570         1.13591
H         39.25200        47.94987         1.31259
H         39.12365        54.67022        -0.16392
H         41.39173        46.94738         1.92251
H         41.21172        55.89428        -0.45347
H         44.99760        44.78287         0.36703
H         42.92262        46.00609         0.76091
H         44.90080        58.13421        -0.56132
H         42.82156        56.90170        -0.36479
H         46.63950        43.77380         1.21299
H         46.52116        59.11435        -0.46954
H         48.68293        42.48002         0.95724
H         48.59591        60.35401        -0.67592
H         52.68077        40.77466         2.05574
H         50.52036        41.71724         1.50620
H         52.33782        62.49573        -1.22055
H         50.24269        61.29760        -0.97528
H         54.33732        40.14382         2.70305
H         53.84822        63.17359        -2.20723
H         56.34617        39.55972         3.90842
H         55.89791        64.16891        -3.18343
H         59.76936        36.96164         2.84027
H         57.82239        38.36479         3.06346
H         60.21843        66.89237        -1.75705
H         58.31574        65.64884        -2.73469
H         61.48467        35.89998         2.92666
H         61.66211        67.76050        -0.80729
H         63.38352        34.46469         2.32808
H         63.36284        68.86338         0.55931
H         66.26196        32.00888         0.05613
H         64.63087        33.31468         1.25354
H         66.56163        70.45320         3.47021
H         64.58207        69.39852         2.47958
H         68.05830        30.95910         0.42963
H         68.18763        71.61090         3.40905
H         72.25795        30.64000        -0.52696
H         70.13331        29.60180         0.28000
H         72.31975        33.04002        -1.14020
H         72.10695        34.84034        -2.13689
H         72.47434        37.25249        -1.97357
H         73.03427        39.25824        -0.37108
H         73.26865        41.66871        -0.69382
H         73.26690        43.73528        -0.98588
H         73.28608        46.18709        -0.92209
H         73.24751        48.03599        -0.48372
H         73.23512        50.45079        -0.21095
H         73.24171        52.38481        -0.39707
H         73.19693        54.76497         0.10383
H         73.15551        56.64104         0.43007
H         73.10740        59.01438         0.94908
H         72.99275        60.82042         1.72386
H         72.85944        63.17202         2.39173
H         72.88516        65.19329         2.04712
H         72.75613        67.61565         2.23694
H         72.64879        69.39284         3.05237
H         72.48685        71.76596         3.69233
H         70.25399        72.88026         3.87043
