         429
 CSIRO Nanostructure Databank - Neutral Graphene Oxide Data Set
C          1.29883         3.43051         0.31371
C          0.09117         4.07464         0.48730
C          1.22435         6.23098         0.66473
C          0.05325         5.47349         0.65104
C          1.16850         7.70953         0.84463
C         -0.04071         8.45187         0.37902
C          1.29975        10.41575        -0.44006
C          0.00108         9.67846        -0.16230
C          1.19217        11.94697        -0.36880
C          0.01487        12.62088        -0.71846
C          1.09940        14.79472        -0.51513
C         -0.04598        14.02000        -0.73797
C          1.05191        16.30491        -0.61571
C         -0.08318        16.89448         0.19294
C          1.03593        19.05482         0.39972
C         -0.07079        18.20737         0.61050
C          0.98230        20.46830         0.91451
C         -0.02922        21.28949         0.14809
C          1.05686        23.37940         0.82424
C          0.06367        22.66907         0.11755
C          1.10918        24.88886         0.69104
C         -0.15060        25.58424         1.16878
C          1.08646        27.66720         0.92965
C         -0.17747        26.92368         1.21115
C          1.10530        29.08926         0.49159
C         -0.12381        29.84327         0.18901
C          1.22492        31.83745        -0.30089
C         -0.03440        31.14808        -0.18774
C          1.18428        33.27346        -0.75603
C          0.41359        33.48730        -2.04261
C          1.33593        35.79045        -2.08124
C          0.49682        34.66715        -2.66640
C          1.67681        36.82452        -3.12875
C          3.74113         3.50162         0.08026
C          2.51655         4.16959         0.30314
C          3.72613         6.33058         0.51151
C          2.48652         5.59096         0.49988
C          3.75353         7.73833         0.82170
C          2.44419         8.47765         0.95142
C          3.27022        10.79358         0.98862
C          2.36659         9.91403         0.50867
C          3.54676        12.11417         0.44494
C          2.34714        12.73390        -0.11171
C          3.59938        14.86757        -0.31262
C          2.31417        14.13774        -0.26213
C          3.56700        16.34813        -0.18375
C          2.35845        16.99193        -0.26435
C          3.56666        19.22711         0.05772
C          2.27252        18.46789        -0.13309
C          3.51256        20.58603         0.65446
C          2.31108        21.19231         0.90818
C          3.55047        23.40705         1.38879
C          2.22934        22.62930         1.27469
C          3.55024        24.90142         1.34949
C          2.35757        25.56058         1.25752
C          3.60785        27.74943         1.42916
C          2.28689        27.03135         1.62375
C          3.59668        29.21772         1.21774
C          2.32465        29.91045         0.77822
C          3.66723        31.93316         0.10237
C          2.40762        31.25135         0.14706
C          3.72493        33.27662        -0.41335
C          2.54660        33.91559        -0.88337
C          3.80902        35.90045        -1.51010
C          2.59922        35.19617        -1.46517
C          3.80289        37.34076        -1.96911
C          2.80734        37.53494        -3.08829
C          6.16567         3.55264        -0.31531
C          4.95261         4.21319        -0.00369
C          6.16817         6.35162         0.11236
C          4.93686         5.64076         0.22502
C          6.20363         7.73099         0.45590
C          5.00114         8.37796         0.91461
C          6.18245        10.57447         0.94926
C          5.15305         9.76624         1.32427
C          6.09029        12.10077         1.07203
C          4.78202        12.72243         0.50712
C          6.10096        14.92016         0.25599
C          4.88341        14.11233        -0.02446
C          6.05921        16.34593         0.22519
C          4.82179        17.06154         0.05761
C          6.03718        19.18214         0.38177
C          4.82629        18.46176         0.15873
C          6.01452        20.63604         0.49102
C          4.76873        21.31881         0.70618
C          5.92135        23.51125         0.72886
C          4.74692        22.68777         0.98472
C          5.98239        24.83759         1.38524
C          4.81531        25.60159         1.57312
C          6.04189        27.86883         1.62063
C          4.80731        27.07474         1.62408
C          6.07475        29.22150         1.15523
C          4.86332        29.91613         0.91953
C          6.14055        31.94533         0.34162
C          4.87827        31.26065         0.46512
C          6.18448        33.30777        -0.08271
C          4.97099        33.96370        -0.49412
C          6.23117        36.00936        -1.08944
C          5.00532        35.29472        -1.03133
C          6.31976        37.28116        -1.76232
C          5.16956        37.86180        -2.28816
C          8.53300         3.61999        -0.97981
C          7.37078         4.26493        -0.56348
C          8.52070         6.46290        -0.54621
C          7.35555         5.70995        -0.34869
C          8.57745         7.82892        -0.14535
C          7.41806         8.45206         0.35123
C          8.64982        10.65687         0.34728
C          7.50509         9.85949         0.87791
C          8.60835        12.04889         0.41861
C          7.26509        12.73894         0.26317
C          8.53164        14.97144         0.50677
C          7.31025        14.24762         0.43326
C          8.53848        16.37700         0.47570
C          7.28132        17.07263         0.38750
C          8.51989        19.23078         0.81347
C          7.25519        18.49258         0.45231
C          8.48961        20.68961         0.47479
C          7.23634        21.34540         0.46092
C          8.50394        23.51802         0.66053
C          7.23096        22.81326         0.42570
C          8.50384        24.83997         1.23025
C          7.27934        25.25972         1.77467
C          8.53221        27.86290         1.71468
C          7.27511        27.36159         2.05995
C          8.55947        29.19594         1.24550
C          7.33446        29.89387         1.02266
C          8.60980        31.96934         0.56754
C          7.35943        31.27570         0.64942
C          8.64098        33.35738         0.22510
C          7.42293        34.00758        -0.08855
C          8.74461        36.15828        -0.61959
C          7.41436        35.43990        -0.44330
C          8.79489        37.33571        -1.51798
C          7.60403        37.88804        -1.98598
C         11.03149         3.69019        -1.41439
C          9.69092         4.36791        -1.58598
C         11.02004         6.54804        -1.00141
C          9.70396         5.84826        -1.19156
C         11.05669         7.90504        -0.40977
C          9.84100         8.55592        -0.15766
C         11.07284        10.68909        -0.00053
C          9.85867         9.96148         0.10485
C         11.03442        12.10113         0.10434
C          9.82094        12.77375         0.30226
C         11.08510        14.99356         0.54183
C          9.80620        14.22698         0.59778
C         11.05399        16.45481         0.35378
C          9.79040        17.13531         0.39693
C         10.95373        19.30019         0.10097
C          9.77509        18.53974         0.35993
C         10.94181        20.70218         0.10937
C          9.70012        21.40408         0.32065
C         10.92227        23.64336         0.35185
C          9.69000        22.83346         0.45486
C         10.93285        24.98886         0.98190
C          9.74694        25.58609         1.38327
C         11.02902        27.74425         1.57832
C          9.77290        27.01260         1.99124
C         11.02769        29.14752         1.34501
C          9.81414        29.87917         1.12787
C         11.08697        31.94117         0.70709
C          9.82959        31.25845         0.81622
C         11.10515        33.34284         0.39180
C          9.92053        34.05252         0.14596
C         11.19579        36.04784        -0.63132
C          9.99158        35.40972        -0.35891
C         11.26075        37.28003        -1.40221
C         10.05758        37.86613        -1.86288
C         13.51999         3.66834        -1.42160
C         12.25532         4.38524        -1.37729
C         13.50605         6.54654        -1.10301
C         12.26490         5.78796        -1.15351
C         13.55712         7.77936        -0.20839
C         12.29443         8.59651        -0.28197
C         13.56245        10.73270        -0.10023
C         12.31996         9.98836        -0.11268
C         13.56804        12.10782        -0.16122
C         12.28721        12.83918        -0.16609
C         13.60299        15.01727         0.20105
C         12.31265        14.31596         0.03013
C         13.53472        16.44914         0.25994
C         12.26102        17.12492         0.19383
C         13.44248        19.35036         0.28562
C         12.23117        18.56773        -0.27061
C         13.49342        20.77595        -0.23120
C         12.17545        21.48404        -0.23350
C         13.52364        23.73782         0.01120
C         12.18304        22.98478        -0.10687
C         13.42535        24.92252         0.96515
C         12.23683        25.60457         1.20368
C         13.47159        27.74737         1.54355
C         12.23787        27.02862         1.51903
C         13.48592        29.13317         1.45766
C         12.27018        29.84358         1.22957
C         13.57910        31.84585         0.54337
C         12.28396        31.22799         0.90141
C         13.65513        33.29210         0.33690
C         12.40124        34.04402         0.40619
C         13.74109        36.00183        -0.58216
C         12.44816        35.49369        -0.11213
C         13.75410        37.29478        -1.27420
C         12.50921        37.86191        -1.69077
C         15.99418         3.57525        -1.13161
C         14.74666         4.29272        -1.28060
C         15.96956         6.40824        -0.58802
C         14.80721         5.77451        -1.22202
C         16.03877         7.87189        -0.45448
C         14.84535         8.55823        -0.34553
C         15.87124        10.75396        -0.98828
C         14.90163        10.03180        -0.04110
C         16.00485        12.22218        -0.57288
C         14.80972        12.87353        -0.24126
C         16.08080        14.98085         0.12703
C         14.78987        14.29223         0.02899
C         16.03917        16.51316         0.22775
C         14.73872        17.20839         0.16354
C         15.87448        19.32172        -0.38481
C         14.71860        18.60917         0.00914
C         15.98671        20.75728        -0.32474
C         14.79370        21.51159        -0.10322
C         15.99763        23.58143         0.47435
C         14.77821        22.88678         0.19672
C         15.99642        24.87859         1.01233
C         14.71061        25.51372         1.38361
C         16.01233        27.73958         1.64343
C         14.72925        27.00223         1.70761
C         16.01513        29.10660         1.71424
C         14.74100        29.90925         1.75488
C         16.12829        31.88881         0.85807
C         14.85875        31.12894         0.86076
C         16.13727        33.22064         0.34873
C         14.87754        33.92178         0.11614
C         16.19516        35.84734        -0.90441
C         14.89946        35.28837        -0.35988
C         16.19413        37.37189        -0.80354
C         14.96275        37.93934        -1.46129
C         18.46357         3.64899        -0.60598
C         17.11560         4.20715        -0.60844
C         18.78160         6.63974        -0.25029
C         16.94724         5.56355        -0.14284
C         18.56971         7.99175        -0.67928
C         17.29570         8.59880        -0.65349
C         18.48740        10.79733        -1.26975
C         17.19399         9.99932        -1.12148
C         18.46359        12.26073        -1.04248
C         17.25202        12.93623        -0.70174
C         18.50785        15.06521        -0.54182
C         17.30827        14.33359        -0.39309
C         18.56417        16.54945        -0.18085
C         17.19781        17.20911        -0.33428
C         18.83512        19.56768        -0.85627
C         16.95952        18.46793        -0.81463
C         18.62756        20.80974        -0.32740
C         17.29473        21.49872        -0.40676
C         18.52635        23.53664         0.69957
C         17.28804        22.94065         0.11657
C         18.47577        24.86900         1.19961
C         17.22325        25.59149         1.27322
C         18.49107        27.68365         1.71594
C         17.24174        26.97118         1.58596
C         18.53051        29.10305         1.75862
C         17.27354        29.90260         1.95884
C         18.55542        31.92063         1.14472
C         17.30665        31.24572         1.24897
C         18.59084        33.26116         0.64614
C         17.37945        33.90357         0.23352
C         18.64269        35.91758        -0.41656
C         17.43612        35.23944        -0.28855
C         18.67256        37.26145        -1.00180
C         17.50618        37.93975        -1.26997
C         19.63597         4.35925        -0.67034
C         20.88285         6.47755        -1.37797
C         19.77588         5.80832        -0.75633
C         20.91056         7.85363        -1.45438
C         19.76498         8.66490        -1.14354
C         20.95822        10.85444        -1.29552
C         19.77197        10.07821        -1.20634
C         20.91619        12.22752        -1.26015
C         19.69336        12.96048        -1.06018
C         20.93836        15.12847        -0.92178
C         19.71142        14.38387        -0.85261
C         20.98876        16.49513        -0.79987
C         19.82230        17.30109        -0.65456
C         21.15422        19.40937        -0.17885
C         19.96115        18.70061        -0.60004
C         21.10593        20.73553         0.09971
C         19.90231        21.61385        -0.16301
C         20.88575        23.43188         1.29237
C         19.74939        22.83894         0.70660
C         20.86111        24.74909         1.71107
C         19.68332        25.51654         1.59101
C         20.92979        27.66751         1.84239
C         19.71106        26.95432         1.75402
C         20.95474        29.04896         1.79248
C         19.75307        29.79816         1.72882
C         20.96288        31.97970         1.46865
C         19.77000        31.24687         1.49892
C         20.99434        33.30388         1.02440
C         19.83851        33.95416         0.56001
C         21.08059        35.96593        -0.23858
C         19.88399        35.29473        -0.01185
C         21.11104        37.24241        -0.86396
C         19.95597        37.87083        -1.24741
O         12.14564        13.76655        -1.32081
O          7.28601        26.18548         2.82795
O          1.66393         8.16466         2.16242
O          2.82814        22.93070         2.58178
O         10.24569         6.63908        -2.30118
O          6.43006        23.44233        -0.64707
O         17.86358        19.02919        -1.70081
O          2.71693        29.93311         2.18904
O         17.74033        10.27689        -2.45351
O          1.35529        27.96229        -0.48276
O         14.26552         6.54097        -2.34533
O          2.90785        19.19370        -1.26088
O         17.92285         6.09575         0.71235
O         12.42186        35.18883         1.31790
O         10.58699        14.52722         1.84023
O          7.95771        36.35021         0.59921
O         14.29002        31.00445        -0.47114
O         17.34089        22.64081        -1.33448
O         16.26484        15.68859         1.42179
O         11.33971        23.65526        -1.10031
O         12.80828        21.02655        -1.49769
O          6.98597        12.55726        -1.11045
O          4.09904        10.36297         2.03070
O         14.69652        26.00336         2.77423
O          4.43123        14.33917        -1.40112
O         13.76751        24.38431        -1.27384
H         12.89011        24.45615        -1.72297
O         18.79784        16.57705         1.27323
H         18.01792        16.12964         1.69169
O         13.55853         7.19515         1.14927
H         13.37223         7.91444         1.78914
O          1.69828        10.08912        -1.80372
H          1.17886        10.64813        -2.41821
O          8.57859        19.19592         2.29884
H          8.64962        18.25256         2.56214
O         14.57673        30.44935         3.11423
H         14.32663        29.70425         3.70227
O         20.12420        22.18517        -1.50594
H         19.25572        22.56353        -1.79204
O         13.28731        19.47142         1.72520
H         13.36749        18.57661         2.11882
O         12.31879        18.46448        -1.70853
H         12.34018        19.38487        -2.07198
O          0.55437        36.44192        -1.05333
H          0.31763        35.74254        -0.39480
O          6.22366        12.46390         2.46649
H          5.50736        11.99859         2.95273
O         15.45022        10.18994         1.30128
H         14.92726         9.63633         1.91735
O         16.23641        35.51341        -2.32263
H         16.27954        34.53740        -2.40156
O          1.19417        25.11931        -0.75351
H          1.18896        26.09187        -0.91551
O          3.33347        38.15797        -0.83930
H          3.94909        38.00831        -0.09091
O         17.26654        30.23523         3.39365
H         16.38292        30.63717         3.58356
O          7.87300         9.69571         2.31621
H          7.80790        10.58743         2.72602
O          9.87742        26.84143         3.43451
H          9.02344        26.45403         3.73657
O         16.08749        37.69189         0.62253
H         16.06985        38.66726         0.71358
O          9.46819         4.30138        -3.03740
H          9.82507         5.14647        -3.40527
O          0.76157        16.62668        -2.01376
H          1.05265        17.54930        -2.17792
O          0.55449        20.38664         2.32076
H          0.75700        21.24588         2.74876
O         15.23766        10.75615        -2.28319
H         15.95524        10.81310        -2.95578
O          1.97588        27.08088         3.04975
H          2.73108        26.69466         3.54119
O          0.45354        34.01102         0.29316
H          0.92975        33.86794         1.13887
H          1.33653         2.34068         0.17396
H         -0.84702         3.50294         0.49491
H         -0.92056         5.96344         0.78609
H         -1.01909         7.95942         0.49889
H         -0.94396        10.13747        -0.49241
H         -0.89550        12.05670        -0.96632
H         -0.99551        14.51125        -0.99220
H         -0.98359        16.28481         0.35904
H         -0.94739        18.61780         1.13318
H         -0.82230        20.77814        -0.41572
H         -0.70008        23.24478        -0.42653
H         -1.04865        24.98821         1.38949
H         -1.08687        27.47355         1.49698
H         -1.09343        29.32723         0.21836
H         -0.94757        31.70814        -0.43483
H         -0.21139        32.67149        -2.43627
H         -0.07558        34.85717        -3.58785
H          0.93999        36.99992        -3.92857
H          3.73896         2.41235        -0.07505
H          3.02065        38.30210        -3.84863
H          6.15254         2.46161        -0.46002
H          5.24638        38.83136        -2.80359
H          8.52272         2.52510        -1.09618
H          7.64298        38.79808        -2.60263
H         11.05480         2.59927        -1.56383
H         10.10556        38.76532        -2.49467
H         13.48048         2.56962        -1.47085
H         12.52928        38.81331        -2.24355
H         16.04706         2.52517        -1.45583
H         14.99525        38.93121        -1.93899
H         18.53587         2.55289        -0.69205
H         17.54622        38.96991        -1.65841
H         20.56136         3.77628        -0.80858
H         21.73936         5.88812        -1.73505
H         21.80693         8.34415        -1.85816
H         21.93167        10.34925        -1.36479
H         21.86730        12.77047        -1.32139
H         21.87921        14.60088        -1.12250
H         21.95729        16.99519        -0.94690
H         22.07978        18.84886         0.01943
H         22.02985        21.22023         0.44581
H         21.82949        22.87561         1.35712
H         21.78290        25.20170         2.09873
H         21.88389        27.12584         1.88532
H         21.92669        29.56015         1.79388
H         21.90802        31.51400         1.77920
H         21.96126        33.82489         1.01536
H         22.03854        35.50737         0.04180
H         22.08429        37.72300        -1.03740
H         19.98762        38.86337        -1.71963
