         300
 CSIRO Nanostructure Databank - Neutral Graphene Oxide Data Set
C         30.35565        31.54069         0.99275
C         30.34143        32.76872         0.80421
C         30.34727        36.08626         1.10550
C         30.40373        37.28275         1.39555
C         30.72881        40.46624         2.57334
C         30.97010        41.67250         2.79988
C         32.57611        28.69348         0.06566
C         31.56913        29.26530         0.48153
C         32.74385        31.40691         0.33375
C         31.30273        30.70298         0.16195
C         32.75157        32.93745         0.68427
C         31.40847        33.70618         0.47673
C         32.74664        35.87954         1.00455
C         31.40471        35.18767         0.61860
C         32.73946        37.41113         0.78591
C         31.49799        38.25025         1.21021
C         33.05745        40.21807         1.91990
C         31.65052        39.64020         1.75026
C         33.34116        41.71157         2.17409
C         32.05390        42.56419         2.62444
C         33.46013        44.33648         2.13776
C         32.32554        43.90053         2.63363
C         35.74987        27.43230        -0.61356
C         34.99976        28.32961         0.11643
C         33.89384        29.12901        -0.52183
C         35.15497        31.59961        -0.74162
C         33.99620        30.67319        -0.12954
C         35.29430        32.89196         0.15348
C         33.96894        33.69595         0.14355
C         35.29129        35.85837         0.59828
C         33.96139        35.19051         0.33900
C         35.33823        37.32819         0.91051
C         34.05930        38.09803         0.79260
C         35.38651        40.23520         0.83022
C         34.20352        39.48347         1.33523
C         35.32036        41.57679         0.59036
C         34.07292        42.36882         0.97139
C         35.49446        44.50775         0.56610
C         34.45322        43.84935         1.37371
C         36.22301        45.66626         1.08601
C         37.73754        27.36031        -2.12209
C         36.46007        26.83280        -1.45853
C         37.78717        28.83205        -1.67909
C         36.63989        29.78188        -1.96457
C         37.73194        31.64530        -0.89902
C         36.54923        30.97807        -1.03702
C         37.85572        33.00810        -0.22330
C         36.50680        33.73937        -0.26276
C         37.83433        35.87999         0.35371
C         36.51844        35.20992         0.02602
C         37.85322        37.32638         0.78009
C         36.59472        38.09596         0.73958
C         37.79644        40.20218         0.17158
C         36.59324        39.46828         0.53399
C         37.75239        41.55711        -0.13751
C         36.37370        42.17537        -0.30728
C         37.66383        44.31730        -0.89486
C         36.39767        43.68770        -0.34123
C         38.70018        46.30933         1.37674
C         37.37429        45.91325         1.51057
C         40.16313        24.49299        -1.23919
C         39.14752        25.27121        -1.50464
C         40.30232        27.28738        -1.56036
C         38.94395        26.60300        -1.61027
C         40.37843        28.79921        -1.53910
C         39.07143        29.52162        -1.35513
C         40.27264        31.68551        -0.89190
C         39.02159        31.04341        -1.49543
C         40.35475        33.19317        -1.09940
C         39.02286        33.88092        -0.74667
C         40.37688        35.99083         0.02470
C         39.06408        35.31232        -0.29678
C         40.40217        37.36141         0.62861
C         39.12538        38.15616         0.92752
C         40.30050        40.33161         0.30744
C         39.08326        39.41034         0.03561
C         40.25996        41.58516        -0.56804
C         38.96550        42.34050        -0.35275
C         40.20607        44.51016        -0.60721
C         38.96976        43.72914        -0.47706
C         40.16218        46.02362        -0.78871
C         39.13391        46.92748         0.07785
C         40.60186        48.84846        -0.44339
C         39.86167        48.23104         0.31723
C         42.73535        24.47444        -0.76603
C         41.42335        24.97033        -1.03958
C         42.78583        27.23245        -0.80213
C         41.48082        26.50965        -1.00726
C         42.87782        28.72094        -1.07673
C         41.62365        29.49189        -1.20017
C         42.83793        31.68912        -0.78007
C         41.55473        30.90918        -0.80770
C         42.85682        33.15015        -0.40929
C         41.57046        33.89023        -0.46293
C         42.90948        36.05664        -0.17682
C         41.61534        35.40547        -0.64704
C         42.88393        37.40393         0.10938
C         41.70562        38.15971         0.69418
C         42.75798        40.32770         0.02937
C         41.61620        39.59171         0.18415
C         42.71964        41.77232        -0.21024
C         41.51917        42.41531        -0.44304
C         42.67131        44.51276        -1.17806
C         41.42447        43.84971        -0.69157
C         42.64209        45.95873        -1.75452
C         41.31862        46.69914        -1.47337
C         42.78436        48.80394        -1.70036
C         41.35569        48.54435        -1.67879
C         43.79477        25.06220        -0.49838
C         45.11078        27.16616         0.19506
C         44.19746        26.47965        -0.81358
C         45.03049        28.69517         0.39777
C         44.10659        29.42728        -0.53853
C         45.23494        31.71243         0.05246
C         44.10738        30.93412        -0.55063
C         45.42297        33.09951        -0.53714
C         44.13011        33.91599        -0.78470
C         45.39083        35.98246        -0.11950
C         44.17515        35.34199        -0.28563
C         45.43420        37.45541        -0.08317
C         44.11172        38.18411        -0.00504
C         45.36092        40.37119         0.17861
C         44.06403        39.65304         0.28732
C         45.28451        41.79403        -0.26899
C         43.99408        42.58366         0.02854
C         45.26894        44.65923        -0.82520
C         43.98874        43.84945        -0.84034
C         45.23453        46.01541        -1.55634
C         43.93671        46.71444        -1.14451
C         43.80912        48.13724        -1.60126
C         47.28956        27.45709         1.11667
C         46.48741        26.71572         0.47181
C         47.43724        28.78929         1.44725
C         46.07015        29.50219         1.26197
C         47.68378        31.57215         0.82756
C         46.28030        30.99409         0.84983
C         47.88901        32.99027         0.34330
C         46.71648        33.79187        -0.22774
C         47.98028        36.06165         0.16413
C         46.71073        35.29996        -0.21407
C         47.92458        37.49119         0.50727
C         46.61591        38.22127         0.48745
C         47.82888        40.44559         0.39109
C         46.63018        39.63208        -0.08017
C         47.92431        41.74902        -0.49028
C         46.57991        42.50028        -0.51793
C         47.87322        44.67894        -0.87858
C         46.58825        43.99250        -0.52985
C         47.56623        46.01838        -1.12318
C         46.50956        46.73303        -1.07261
C         49.78685        28.87578         2.54646
C         48.43401        29.52242         2.28414
C         50.07103        31.59287         1.90743
C         48.82081        30.84611         1.54358
C         49.93911        33.12981         1.94421
C         49.22072        33.72652         0.66326
C         50.28850        35.99932         1.29543
C         49.06688        35.25406         0.83577
C         50.42362        37.45508         0.88049
C         49.11617        38.26498         1.05345
C         50.22626        40.64251         0.93689
C         49.18285        39.64850         0.32128
C         50.34591        41.90030         0.02208
C         49.16486        42.58690        -0.20320
C         50.41996        44.39300        -1.36956
C         49.17792        44.10163        -0.45165
C         50.74135        29.56282         3.00469
C         52.13697        31.78353         3.14675
C         51.10483        30.90546         2.81178
C         52.20176        32.99146         2.76337
C         51.29878        33.86658         2.13599
C         52.63289        35.99659         1.72613
C         51.46705        35.17593         1.74043
C         52.77131        37.19912         1.45363
C         51.78775        38.14917         0.88591
C         52.62325        40.47480         0.22037
C         51.95941        39.62277         1.11373
C         52.78877        41.57980        -0.42562
C         51.61766        42.39253        -0.51375
C         51.40332        43.63171        -1.15715
O         35.38700        36.31454         1.97037
O         51.21579        37.65392        -0.32630
O         36.33505        34.69687        -1.32331
O         40.52619        28.00367        -2.80767
O         44.37269        27.73346         1.28342
O         40.23119        41.11304        -1.99612
O         31.27773        39.40253         0.37714
O         35.95280        41.85301        -1.75850
O         44.05421        28.97236        -1.92873
O         33.65897        30.76810         1.27760
O         44.69435        40.16182         1.51566
O         45.82383        44.69013         0.52352
O         42.13281        33.46749         0.80842
O         44.81696        37.98969        -1.29359
O         50.08112        40.98543         2.16967
O         35.22150        44.38602        -0.85697
O         43.90771        34.08822        -2.27449
O         38.78368        34.96386        -1.68490
O         41.91668        26.95529         0.32562
O         49.98120        30.85126         0.66275
O         49.14823        35.76465         2.21433
O         33.76078        34.59526        -0.96135
O         37.90607        36.21881         1.75590
O         31.26700        34.56939        -0.66540
O         43.38034        43.62847        -2.13431
O         33.33016        37.87881        -0.45084
O         48.11518        31.85465        -0.53597
O         37.60314        45.15233        -1.77877
O         35.90976        29.68245        -2.93420
O         46.40568        33.26636        -1.56260
O         43.74588        31.43584        -1.87254
O         47.62570        35.80948        -1.23589
O         40.53731        36.16359         1.46434
O         40.14986        46.33451        -2.23383
O         45.26122        31.81260         1.52110
O         38.23975        28.98209        -0.29310
O         33.92861        39.42429         2.79011
O         45.75136        41.98284        -1.63537
O         40.67996        31.18955         0.39653
O         35.93994        40.42539        -1.94044
O         50.09064        33.55671        -0.45109
H         49.89853        32.67600        -0.85322
O         34.25370        41.82881         3.26062
H         34.26918        40.97337         3.75090
O         34.65043        32.01736        -2.00533
H         34.77634        31.28166        -2.65345
O         42.74721        45.89823        -3.16742
H         43.30710        45.11924        -3.39787
O         37.66539        27.30342        -3.52857
H         37.85651        26.39349        -3.83350
O         35.17608        28.48545         1.44022
H         35.89283        27.90012         1.75966
O         49.55046        44.71581         0.78232
H         49.40774        45.68317         0.70533
O         47.53376        40.84162         1.74237
H         48.39379        40.95437         2.23952
O         48.16552        41.38270        -1.87755
H         47.27714        41.22411        -2.28676
O         47.87776        29.93020         3.52212
H         47.07027        29.39826         3.71328
O         41.54440        35.71030        -2.05898
H         42.32115        35.27479        -2.49137
O         33.83772        28.99825        -1.91242
H         34.18934        28.12685        -2.19438
O         35.59033        32.51211         1.50612
H         34.83157        31.98020         1.86448
O         34.56511        40.04897        -1.79952
H         34.17633        40.21274        -2.69387
O         52.26982        39.86013         2.45573
H         51.58250        40.49939         2.80586
O         40.09214        42.27427        -2.84491
H         41.02624        42.49739        -3.08392
O         33.20846        42.44262        -0.15174
H         33.67615        42.92653        -0.87134
O         44.93862        34.93142        -2.82194
H         44.62930        35.85696        -2.65101
O         43.98928        42.94530         1.41836
H         44.15340        42.11885         1.93256
O         39.61277        46.16533         2.33874
H         39.21536        45.82252         3.16435
O         49.52323        39.33466        -1.01848
H         49.17070        40.02404        -1.63508
O         32.85981        35.72963         2.42733
H         33.01264        34.77732         2.64411
O         38.22428        32.78550         1.15161
H         37.43546        32.43730         1.63408
O         39.16530        38.53803         2.31455
H         39.06280        37.70863         2.83461
O         46.37000        38.29348         1.94472
H         46.69636        39.18849         2.23696
O         37.99715        47.22958        -0.68067
H         38.24488        47.29200        -1.62808
O         38.98123        31.26815        -2.91556
H         39.45425        32.11358        -3.12751
O         44.80274        26.52876        -2.08012
H         44.25683        26.05270        -2.73776
O         39.13643        38.85873        -1.29565
H         39.18017        39.59838        -1.94931
O         40.22164        40.83684         1.65453
H         40.25827        40.06803         2.27366
O         49.11186        33.32682         3.09602
H         49.08004        34.29134         3.30392
O         30.95807        30.81619        -1.18423
H         30.08016        30.41439        -1.34332
O         40.55212        33.35013        -2.52672
H         40.27295        34.27417        -2.75553
O         32.92460        32.97745         2.13161
H         32.25307        32.38672         2.54062
O         48.96129        38.51791         2.46049
H         48.74899        37.66519         2.90129
O         40.67268        48.82788        -2.83000
H         39.97540        48.14562        -2.96754
O         42.01659        38.28781         2.11180
H         41.87619        37.40099         2.51476
O         43.79714        46.66038         0.26153
H         44.67734        46.79542         0.67692
O         45.50417        29.53432         2.59003
H         44.91103        30.31964         2.65011
O         45.30647        45.79769        -2.94943
H         45.19900        46.65918        -3.40569
