         294
 CSIRO Nanostructure Databank - Neutral Graphene Oxide Data Set
C          1.24552         1.82835         0.46180
C          1.30679         3.13390         0.88520
C          2.29439         1.10066        -0.17698
C          2.44914         4.04993         0.50863
C          1.06711         6.32295         0.83628
C          1.07207         7.63720         0.55629
C          2.32597         5.53132         0.95376
C          2.30628         8.39398         0.09755
C          1.15883        10.64679        -0.06093
C          1.17974        12.09518        -0.11499
C          2.25574         9.91684         0.26488
C          2.34697        12.80606        -0.03734
C          1.25325        15.04312        -0.73343
C          1.33675        16.33972        -1.06864
C          2.42413        14.32631        -0.08970
C          2.59507        17.14641        -0.80875
C          2.73701        18.38347        -1.66675
C          3.65877         1.41860         0.05573
C          3.77972         3.50239         1.01662
C          4.74444         1.13903        -0.75732
C          4.91930         4.23729         1.07416
C          3.58779         6.33016         0.94923
C          3.58213         7.79443         0.67323
C          4.84766         5.62400         0.47865
C          4.75451         8.48373         0.66635
C          3.53893        10.63657         0.65510
C          3.58936        12.09541         0.22929
C          4.74358         9.88191         0.07346
C          4.81529        12.70535         0.16023
C          3.72108        14.80651        -0.74166
C          3.81073        16.25448        -1.06204
C          5.01946        14.02743        -0.53695
C          5.20287        16.88642        -1.07419
C          3.94503        18.95960        -1.82487
C          5.14201        18.39943        -1.18513
C          6.09242         1.77873        -0.68624
C          6.22988         3.66214         1.37084
C          7.19074         1.37427         0.00681
C          7.37675         4.23417         0.85632
C          6.10917         6.36387         0.83904
C          6.04546         7.83187         1.05090
C          7.37604         5.67066         0.40120
C          7.34725         8.62064         1.10863
C          6.05105        10.61130         0.28972
C          6.06205        11.96461         0.37196
C          7.28374         9.76455         0.09365
C          7.27220        12.75101         0.82912
C          6.16824        14.86028         0.04982
C          5.96944        16.37358         0.16375
C          7.31298        14.20786         0.36063
C          7.25522        17.16651         0.37147
C          6.16794        19.17865        -0.77555
C          7.21736        18.69793         0.19998
C          8.49515         2.10629        -0.00577
C          8.58440         3.49470         0.51712
C          9.60026         1.51596        -0.53319
C          9.77510         4.18475         0.53099
C          8.62537         6.42499         0.80108
C          8.62379         7.76918         0.93692
C          9.82215         5.56926         1.17862
C          9.92402         8.54192         1.09997
C          8.58498        10.56437         0.11199
C          8.64250        11.98424         0.71384
C          9.88450         9.85677         0.33399
C          9.75888        12.71858        -0.01485
C          8.64013        14.90975         0.58770
C          8.55385        16.42771         0.39744
C          9.72120        14.19607        -0.23121
C          9.75503        17.16461        -0.10324
C          8.58747        19.32464         0.04652
C          9.78384        18.64183         0.08661
C         10.87158         2.29240        -0.79850
C         11.01042         3.45507         0.18180
C         12.15444         1.48265        -0.78978
C         12.34170         4.10830         0.29368
C         11.17888         6.29751         1.06025
C         11.21580         7.77473         0.85299
C         12.44607         5.53415         0.75999
C         12.37767         8.47091         0.64675
C         11.11753        10.67451         0.39896
C         11.06858        11.99295         0.01070
C         12.44133         9.99876         0.64212
C         12.24515        12.69264        -0.44095
C         11.02066        14.90187        -0.68376
C         11.01565        16.43013        -0.45534
C         12.26739        14.19010        -0.11672
C         12.29278        17.14960        -0.19704
C         11.05389        19.28734        -0.03287
C         12.28056        18.59706        -0.10177
C         13.36849         2.09898        -0.75570
C         13.40930         3.62112        -0.67363
C         14.62385         1.36849        -0.62397
C         14.80755         4.11697        -0.25575
C         13.73126         6.29584         0.51263
C         13.71397         7.80984         0.62722
C         14.86596         5.63703        -0.17593
C         14.93889         8.58589         0.19698
C         13.53444        10.56649        -0.27206
C         13.32694        11.87140        -0.84416
C         14.82363        10.00352        -0.22501
C         15.04309        12.87885         0.50075
C         13.54058        14.92995        -0.57691
C         13.48037        16.40961        -0.21455
C         14.80465        14.33474         0.06811
C         14.71806        16.99770         0.12453
C         13.49462        19.39318        -0.21531
C         14.73838        18.98792         0.23368
C         15.86292         1.94865        -0.71866
C         15.86359         3.43405        -1.15148
C         17.05686         1.21527        -0.27920
C         17.17072         4.17906        -1.04261
C         16.00958         6.33587        -0.45402
C         16.14506         7.80959        -0.26420
C         17.22329         5.62634        -0.82578
C         17.10915         8.55362        -1.19675
C         16.06654        10.71151        -0.43407
C         16.15357        12.13651        -0.18944
C         17.28523        10.01473        -0.76746
C         17.28775        12.85643        -0.50004
C         16.05707        15.09066        -0.15583
C         16.00640        16.56628        -0.53695
C         17.29071        14.33461        -0.46769
C         17.26392        17.28983        -0.03488
C         16.08428        19.51530         0.07098
C         17.22395        18.74431         0.15847
C         18.31133         1.45997        -0.76207
C         18.34118         3.55911        -1.33834
C         19.62278         1.12208        -0.21006
C         19.58272         4.09158        -0.70080
C         18.40392         6.31318        -1.00025
C         18.45051         7.75053        -1.48029
C         19.72280         5.57926        -1.07220
C         19.77718         8.46184        -1.08728
C         18.49645        10.69012        -0.89112
C         18.53537        12.20532        -1.06957
C         19.79385         9.98309        -0.99203
C         19.79285        12.89009        -0.47016
C         18.54412        15.15045        -0.38166
C         18.43809        16.57293         0.04421
C         19.79973        14.36643        -0.13348
C         19.71194        17.16864         0.51791
C         18.52589        19.51550         0.34169
C         19.73529        18.66253         0.73860
C         20.73066         1.89829        -0.30630
C         20.85296         3.27193        -0.96496
C         22.02713         4.08109        -0.41699
C         20.72857         6.23942        -0.11871
C         20.88628         7.71224        -0.46224
C         21.99038         5.38888        -0.10466
C         21.92823         8.42685         0.16907
C         21.06131        10.71235        -0.48083
C         20.77592        12.03046         0.22254
C         22.00599         9.79656         0.24507
C         21.57880        12.57318         1.18539
C         20.68445        14.86259         0.95356
C         20.66793        16.29698         1.24929
C         21.50311        13.95390         1.58231
C         21.58340        16.90299         2.08064
C         20.65068        19.15257         1.77904
C         21.54696        18.30985         2.36313
O         18.35311         2.29036        -1.91419
O         11.92268         3.17328         1.32337
O          9.25551        13.29054        -1.27615
O         14.07701         6.98261         1.76386
O         14.50100        12.48664         1.51848
O         16.09271         8.32402         1.08316
O          7.96027        16.94817         1.64733
O         12.03531         5.76915         2.13432
O         20.43616        13.87564        -1.35440
O         17.92371        14.91057        -1.68547
O         15.44955        15.04178         1.18951
O          3.85876         2.12783         1.28365
O         20.15995         9.31669        -2.26098
O         14.73701        17.89871         1.17162
O         10.12709        16.96051        -1.50653
O          3.03830         5.83364         2.20789
O         20.37544        18.07279        -0.43909
O          3.57695        15.28245        -2.12125
O          9.37036        10.11477        -1.04550
O          6.02359         6.89271         2.18997
O          5.11179        16.58022         1.30332
H          5.65504        16.46570         2.11150
O          5.93357        16.41598        -2.23109
H          5.38558        16.59913        -3.02388
O          5.50855        13.63455        -1.84700
H          5.53357        14.45742        -2.39181
O         11.11106        14.74197        -2.12072
H         10.43243        14.06393        -2.37327
O          2.35678         8.16871        -1.34275
H          3.11670         8.71402        -1.67823
O          6.73959        19.22430         1.47957
H          7.27035        18.77960         2.17789
O         15.45259         3.47590        -2.54776
H         16.14304         3.00555        -3.06296
O          9.07288        14.70097         1.95617
H          8.62583        15.38345         2.50763
O          4.53727         9.77234        -1.36280
H          5.40896         9.49731        -1.74486
O         15.08039         3.65644         1.08664
H         14.41782         4.04348         1.69862
O         18.31964        20.55243         1.30876
H         17.92402        20.15947         2.11364
O         20.16145         6.26236         1.22514
H         20.87536         6.50967         1.84907
O          2.50491         4.03321        -0.94562
H          3.22485         4.65640        -1.22614
O         21.06735         3.07595        -2.37225
H         20.98281         3.96349        -2.79665
O          7.00429        12.92249         2.24931
H          7.86880        13.17009         2.66044
O          6.19412         2.86594        -1.53547
H          5.32099         3.04468        -1.93925
O         21.81810        11.14992        -1.64891
H         21.65544        10.47514        -2.34968
O          2.58821        17.56503         0.57328
H          2.71918        16.75470         1.12336
O         13.71462        14.80517        -2.00642
H         12.82083        14.97036        -2.41696
O          7.38443         5.69122        -1.07699
H          7.92461         4.92456        -1.37338
O         12.21085        14.29109         1.31742
H         12.86269        13.65549         1.70440
O          7.42530         9.24123         2.40961
H          7.13813         8.56660         3.06529
O          9.12483        11.75873         2.05800
H          8.62960        10.99720         2.44566
O          4.74799         5.52900        -0.97136
H          5.67753         5.49330        -1.32985
O          7.11934         9.12930        -1.20371
H          7.97020         9.26496        -1.69336
O         18.53047         7.60172        -2.94018
H         19.05845         8.38380        -3.25284
O          6.30890         2.53765         2.11148
H          5.40779         2.15456         2.22303
O         19.35320         3.94459         0.72296
H         18.70421         4.62066         1.01493
O         18.57327        12.40528        -2.50220
H         19.11537        13.21521        -2.66100
O          3.66738        10.56427         2.09886
H          2.93868        11.08419         2.49573
O         12.85186        10.34060         2.00090
H         12.10550        10.09486         2.59213
O         14.19963        12.24178        -1.80805
H         14.00095        13.15436        -2.15425
O         10.03928         8.98659         2.48944
H         10.04017         8.18092         3.05101
O          9.60127         5.37176         2.60619
H         10.42058         4.94462         2.94996
O         10.69359         2.86056        -2.13155
H         11.51324         3.38082        -2.33637
O         16.36084         8.64996        -2.43201
H         16.93889         8.29939        -3.15410
O          2.51297        14.78582         1.30042
H          1.69949        14.49751         1.76540
O         15.88625        16.76066        -1.95264
H         16.63051        16.26854        -2.37428
O         13.04923         4.23641        -1.94003
H         13.77591         4.02036        -2.57839
O         20.27706         5.66057        -2.40885
H         19.72812         6.30632        -2.92486
H          0.27432         1.31181         0.55529
H          0.42058         3.57459         1.36628
H          2.03455         0.27395        -0.85458
H          0.11563         5.81720         1.06877
H          0.11114         8.17490         0.52236
H          0.21707        10.14584        -0.33183
H          0.22343        12.60581        -0.29878
H          0.31529        14.49486        -0.91013
H          0.46604        16.85228        -1.50779
H          1.83852        18.83938        -2.11003
H          4.50395         0.66293        -1.72496
H          4.04442        19.91253        -2.36822
H          7.12903         0.45341         0.60435
H          6.10361        20.26991        -0.91209
H          9.52373         0.50710        -0.96779
H          8.60808        20.42612         0.05331
H         12.09722         0.38305        -0.82745
H         11.07435        20.38756        -0.01455
H         14.54971         0.29711        -0.37815
H         13.40599        20.37179        -0.71111
H         16.92281         0.49377         0.54173
H         16.21039        20.61008         0.03628
H         19.68833         0.19303         0.38028
H         18.77917        20.03156        -0.62147
H         21.64478         1.52352         0.18458
H         22.99453         3.55540        -0.34825
H         22.92204         5.86854         0.24040
H         22.72495         7.84367         0.65723
H         22.91938        10.24695         0.65844
H         22.34172        11.95298         1.67744
H         22.17139        14.28404         2.39024
H         22.34318        16.29817         2.59512
H         20.57327        20.20311         2.09365
H         22.24731        18.69934         3.11576
