         261
 CSIRO Nanostructure Databank - Neutral Graphene Oxide Data Set
C        -11.27787         0.73267        -0.70874
C        -10.04910         1.53570        -0.92720
C         -8.72339         0.81575        -0.81880
C         -7.48748         1.59551        -0.28929
C         -6.44928         0.74900         0.47023
C         -5.22384         1.43251         1.04026
C         -3.89313         0.69107         1.09599
C         -2.62123         1.52024         0.92822
C         -1.32037         0.81110         0.66030
C          0.00922         1.51699         0.75963
C          1.30165         0.74775         0.78735
C          2.61970         1.45831         0.97980
C          3.90522         0.65147         0.90743
C          5.18767         1.39519         0.82747
C          6.48006         0.63012         0.67164
C          7.76758         1.40312         0.62209
C          9.02116         0.67532         0.20664
C         10.09434         1.48810        -0.51352
C         11.36968         0.66756        -0.57516
C        -10.08679         3.02205        -0.79852
C         -8.98721         3.69523        -0.28557
C         -8.17151         2.72188         0.57087
C         -6.49678         3.67492         1.12578
C         -5.18793         2.94561         1.11300
C         -3.91165         3.72585         1.26814
C         -2.60486         2.98290         1.33562
C         -1.31118         3.76230         1.15724
C          0.00967         3.00007         1.02218
C          1.29396         3.70834         0.67386
C          2.61890         2.91777         0.64020
C          3.84039         3.48694        -0.01664
C          5.20206         2.74376         0.10464
C          6.39805         3.62294         0.46690
C          7.72453         2.92617         0.57106
C          8.95615         3.66299         0.15803
C         10.26344         2.86841         0.18547
C         -8.82339         5.10018        -0.43785
C         -7.64403         5.89066        -0.24863
C         -6.25557         5.30404        -0.26715
C         -5.23687         5.94059         0.66020
C         -3.93552         5.23627         1.04314
C         -2.64176         5.98905         0.85475
C         -1.31671         5.24376         0.86953
C         -0.11857         5.83905         0.12896
C          1.17104         5.05259         0.00357
C          2.47156         5.69163        -0.46219
C          3.78321         4.92577        -0.41819
C          5.06404         5.71071        -0.39937
C          6.35169         5.05899         0.01589
C          7.62328         5.69597        -0.59388
C          8.90378         4.96660        -0.20189
C         -7.69535         7.27204        -0.24860
C         -6.55897         8.19361         0.15019
C         -5.27408         7.44988         0.59208
C         -3.95101         8.19245         0.52719
C         -2.69393         7.38078         0.28831
C         -1.40664         8.06338        -0.06886
C         -0.05016         7.37006         0.14381
C          0.81354         8.16025        -0.91315
C          2.51559         7.08801        -0.94570
C          3.56772         8.05893        -0.99156
C          5.31400         6.97697        -1.24105
C          6.35697         7.85091        -0.54121
C          7.53012         7.19194        -0.30668
C         -6.29522         9.33001        -0.80619
C         -5.15417        10.03495        -0.76770
C         -3.92992         9.57921        -0.05450
C         -2.63768        10.23549        -0.55727
C         -1.34808         9.55342        -0.15065
C         -0.15605        10.22017        -0.12902
C          1.12753         9.52075        -0.27885
C          2.35120        10.06270        -0.02644
C          3.63409         9.41469        -0.41064
C          4.96264         9.90615         0.01523
C          6.13398         9.22571        -0.09549
C        -11.28685        -0.59865        -0.46879
C        -10.07047        -1.43383        -0.57412
C         -8.77005        -0.68876        -0.75475
C         -7.56029        -1.47771        -0.34718
C         -6.38251        -0.73839         0.17760
C         -5.05829        -1.41029         0.04154
C         -3.84753        -0.75823         0.68171
C         -2.54594        -1.43143         0.31057
C         -1.25792        -0.69529         0.47175
C         -0.01829        -1.47376         0.84446
C          1.31190        -0.74935         0.92162
C          2.58678        -1.46857         0.58047
C          3.84387        -0.70776         0.28552
C          5.09626        -1.39277        -0.19367
C          6.40963        -0.83651         0.30905
C          7.69367        -1.58241         0.10224
C          8.99229        -0.81449         0.03464
C         10.06031        -1.45697        -0.84231
C         11.35444        -0.66685        -0.72263
C         -9.96590        -2.81211        -0.02625
C         -8.81547        -3.54697        -0.12413
C         -7.65013        -2.92129        -0.92819
C         -6.25013        -3.70373        -0.98554
C         -5.05304        -2.86588        -0.36943
C         -3.84401        -3.63055         0.10034
C         -2.57252        -2.93078         0.42599
C         -1.27202        -3.63062         0.13627
C         -0.02300        -2.95640         0.62053
C          1.22989        -3.61305         0.09385
C          2.50366        -2.85204         0.02677
C          3.77668        -3.61102        -0.25498
C          5.05297        -2.87598        -0.52127
C          6.35834        -3.61604        -0.74554
C          7.67448        -2.92940        -0.57373
C          8.92452        -3.73772        -0.49353
C         10.23904        -2.95761        -0.48460
C         -8.79191        -4.96329         0.20795
C         -7.64181        -5.68369         0.14017
C         -6.36498        -5.17420        -0.46364
C         -5.10807        -5.75725         0.17901
C         -3.82496        -5.09255        -0.19731
C         -2.54292        -5.84304        -0.23419
C         -1.23129        -5.09533        -0.19718
C          0.05129        -5.90040        -0.04011
C          1.31372        -5.11795         0.05237
C          2.57418        -5.76251         0.56265
C          3.86377        -5.02175         0.24095
C          5.15290        -5.74336         0.06187
C          6.27544        -5.16069        -0.84919
C          7.60323        -5.85685        -0.54100
C          8.85171        -5.09802        -0.47562
C         -7.38866        -7.02530        -0.52197
C         -6.42556        -7.96949         0.26599
C         -5.10060        -7.22267         0.44170
C         -3.79871        -7.98632         0.45245
C         -2.52242        -7.32140         0.02923
C         -1.23607        -8.04554         0.24242
C         -0.05540        -7.20705         0.73787
C          1.25611        -8.11351         0.93500
C          2.57249        -7.24717         0.78329
C          3.86082        -7.98638         0.50849
C          5.04277        -7.23995        -0.09609
C          6.28636        -7.96950        -0.52547
C          7.56984        -7.22043        -0.47430
C         -6.21296        -9.33701        -0.35209
C         -5.06936       -10.04663        -0.28735
C         -3.77788        -9.52240         0.22876
C         -2.49677       -10.11690        -0.07783
C         -1.22057        -9.55249         0.51541
C          0.05649       -10.08142        -0.10887
C          1.25985        -9.38986         0.07302
C          2.48856        -9.98298        -0.26817
C          3.80096        -9.45424         0.08190
C          5.03995       -10.09936        -0.44100
C          6.21911        -9.45394        -0.54750
O         -1.76965        -7.90756        -1.10810
O         -6.28453         0.94311         1.89741
O          0.73480         1.18593        -0.48529
O         -1.15431        -4.08883        -1.23549
O         -5.18632        -6.24423         1.54658
O         -3.29493         3.32660         2.54735
O          9.51225        -0.22633         1.25215
O          5.88588        -5.50377        -2.14105
O          3.60585         9.05873        -1.91912
O          7.02889         3.46512         1.75412
O         -4.71225        -1.80019        -1.31212
O         -9.19014         1.25070        -2.12277
O          2.60585        -6.30550         1.90314
O         -3.30237         5.94139         2.14163
O          4.65599         0.98403         2.11515
O         -1.80034        -1.01877        -0.85373
O          2.17344        -1.27736         1.96491
O         -1.10721         4.76147         2.20858
O          4.18138        -3.29230        -1.61333
O         -8.62998         2.43057         1.68397
O          2.34291         6.13084        -1.90123
O          0.51651         8.10294        -2.11490
O         -7.29751        -1.46883         1.07679
O          3.65205         3.85947        -1.41494
O         -0.14366        -2.42318         1.95971
O         -9.42306        -1.26349        -1.90240
O          5.26967        -7.49148        -1.51284
O          4.09522        -9.00698         1.47793
O          5.59225         5.89247         0.94941
O          5.29349         6.89684        -2.48512
O          4.29881        -0.59942        -1.10602
O          0.17398         5.10111        -1.07392
O         -8.08828        -2.83939        -2.25129
O          0.85248         3.56857         2.05142
O          7.27545         0.86763         1.87232
O         -5.83710         4.66875        -1.23652
O          4.87456        -5.14545         1.32569
O         -2.23831         7.44695        -1.10631
O          1.62246        -2.94331        -1.13787
O          7.03520        -2.99372        -1.88047
O         -6.61929        -6.24441        -1.53035
O         -3.90811         9.36391         1.39122
O         -3.74165        -8.87141         1.56850
O         -2.10065         1.42458        -0.42548
O         -6.07366         3.41213         2.28959
O          1.20829        -8.58631         2.23931
O         -3.42623        -3.41108         1.49659
O          6.99256        -1.65729         1.37573
O         -5.66714         6.72480         1.80555
O          2.82245         2.44910         2.00321
O         -3.87861        -0.37366         2.08380
O          0.90916        -5.78949        -1.19542
O         -3.29344        -5.53786        -1.46347
O          7.58835         5.46335        -2.02407
H          6.93676         6.06237        -2.46170
O          9.63215         1.73457        -1.85750
H          9.61193         0.87335        -2.33429
O         -1.11041        -9.86771         1.91114
H         -0.22975        -9.48033         2.23466
O         -2.65012        10.23947        -1.99306
H         -2.36695         9.35116        -2.30486
O          9.58728        -1.35880        -2.20294
H         10.08320        -2.02497        -2.72863
O         -6.79585         2.14325        -1.40678
H         -7.43889         2.26494        -2.14344
O          5.53871         2.27253        -1.23278
H          5.02048         2.79390        -1.89458
O         -7.01365        -8.19659         1.56009
H         -6.64801        -7.51831         2.17254
O         11.14543        -3.49337        -1.45105
H         11.19079        -4.46542        -1.34611
O         10.69569         2.66318         1.52979
H         10.03911         2.10668         2.00035
O          0.46977         7.72146         1.44053
H         -0.05973         7.28309         2.14175
O         -7.06207         8.84824         1.34983
H         -6.92194         8.22630         2.09976
O         -5.87371        -3.82706        -2.35167
H         -6.65001        -3.54215        -2.89847
O         -0.42418        -6.76542         2.05322
H          0.13568        -7.32849         2.67177
H         12.30069        -1.22347        -0.80491
H         12.33049         1.20305        -0.52604
H         11.05970         3.45339        -0.33685
H          9.83944         5.46626        -0.50201
H          8.37366         7.71074         0.17690
H          7.04057         9.73919         0.26485
H          4.99326        10.92094         0.44029
H          2.41627        11.06054         0.43749
H         -0.15610        11.32200        -0.15566
H         -2.63725        11.30454        -0.22365
H         -5.03164        10.90835        -1.42573
H         -7.13593         9.67990        -1.42320
H         -8.68111         7.76010        -0.32728
H         -9.71849         5.65191        -0.77606
H        -10.87054         3.56017        -1.35778
H        -12.21846         1.29564        -0.61204
H        -12.23298        -1.09633        -0.20843
H        -10.85546        -3.23587         0.46400
H         -9.75128        -5.46900         0.40057
H         -8.26454        -7.55398        -0.96347
H         -7.10234        -9.81918        -0.78718
H         -5.04320       -11.05561        -0.72778
H         -2.45004       -10.95608        -0.78986
H          0.09998       -11.14713        -0.38956
H          2.47662       -10.83146        -0.97244
H          4.99804       -11.18767        -0.59979
H          7.12875       -10.00697        -0.82405
H          8.49273        -7.80261        -0.32915
H          9.78202        -5.68890        -0.41587
H         10.69760        -3.03065         0.54631
