         732
 CSIRO Nanostructure Databank - Neutral Graphene Oxide Data Set
C         22.81441        24.44482         1.18732
C         21.76727        25.16150         1.73037
C         22.78493        27.35213         1.19555
C         21.82147        26.55518         1.92824
C         22.92664        28.81514         1.39090
C         21.86512        29.58385         1.90984
C         23.11928        31.66526         1.66275
C         21.94557        30.96731         2.02993
C         23.21786        33.12303         1.68736
C         22.03980        33.89433         1.83979
C         23.25205        35.97300         1.41572
C         22.05478        35.26528         1.69574
C         23.19316        37.41089         1.14882
C         21.99595        38.15450         1.34945
C         23.05857        40.23883         0.63660
C         21.93165        39.51033         1.09506
C         23.01065        41.66283         0.39897
C         21.79603        42.39228         0.47919
C         22.95304        44.49479         0.03205
C         21.76881        43.75843         0.28611
C         22.93182        45.93491        -0.12419
C         21.71836        46.65586        -0.11420
C         22.91100        48.74497        -0.34647
C         21.71230        48.04097        -0.23518
C         25.30310        22.94265         0.21339
C         25.18510        24.43435         0.08830
C         24.15796        25.09450         1.05465
C         25.28563        27.31252         0.50307
C         24.04108        26.56926         0.67243
C         25.30255        28.72101         0.59838
C         24.13137        29.46731         1.02985
C         25.44379        31.55659         0.93321
C         24.21540        30.88471         1.19632
C         25.59479        32.92652         1.24292
C         24.46575        33.79952         1.49326
C         25.65683        36.06907         1.05036
C         24.48535        35.26003         1.37620
C         25.57177        37.40463         0.54302
C         24.32100        38.10889         0.66017
C         25.44581        40.23663         0.02368
C         24.27669        39.52868         0.41472
C         25.44378        41.65318        -0.05192
C         24.20617        42.37122         0.09778
C         25.41198        44.51234        -0.26744
C         24.18785        43.79258        -0.05276
C         25.40629        45.93181        -0.33986
C         24.16069        46.64600        -0.27490
C         25.40291        48.79699        -0.44721
C         24.14616        48.07042        -0.36195
C         25.43429        50.20480        -0.46571
C         27.76316        23.00023         0.29934
C         26.49616        22.30034         0.24617
C         27.72244        24.41091         0.39885
C         26.50924        25.13522         0.31854
C         27.74926        27.25579         0.26771
C         26.51916        26.55405         0.38372
C         27.68730        28.65515        -0.27787
C         26.50885        29.43446         0.28727
C         27.69689        31.58259        -0.15215
C         26.55719        30.81866         0.40142
C         27.89483        32.96182         0.30515
C         26.94333        33.42304         1.18392
C         28.07337        36.09066         0.48502
C         26.97766        35.59557         1.17869
C         27.96530        37.38772        -0.07672
C         26.73031        38.06292         0.05098
C         27.93980        40.20472        -0.39857
C         26.63099        39.46566        -0.50311
C         27.96233        41.66463        -0.04964
C         26.65466        42.38382        -0.24902
C         27.88679        44.52346        -0.49558
C         26.65229        43.79276        -0.33849
C         27.87768        45.94502        -0.54720
C         26.63799        46.65236        -0.46769
C         27.87397        48.80350        -0.57312
C         26.63701        48.08289        -0.49882
C         27.87041        50.22733        -0.52821
C         26.63459        50.90113        -0.49086
C         30.28763        20.22815        -0.25523
C         29.08396        20.89893        -0.10641
C         30.26804        22.96422         0.34888
C         29.02562        22.28277         0.20811
C         30.25488        24.37096         0.82516
C         28.95124        25.15486         0.75916
C         30.19694        27.35160         0.45468
C         28.98624        26.61848         0.49807
C         30.20974        28.75526         0.12419
C         29.00014        29.38710        -0.16634
C         30.26680        31.54178        -0.61547
C         28.97546        30.79686        -0.50267
C         30.23680        33.03333        -0.62382
C         28.95737        33.84125        -0.37268
C         30.34609        35.92462        -0.49651
C         29.29510        35.20922         0.34153
C         30.36698        37.36515        -0.68320
C         29.16557        38.07636        -0.52489
C         30.38740        40.24504        -0.66468
C         29.13503        39.52366        -0.54952
C         30.37917        41.66994        -0.74845
C         29.16094        42.39639        -0.59266
C         30.32934        44.55756        -0.85967
C         29.12655        43.81379        -0.65835
C         30.34225        45.95391        -0.81899
C         29.10996        46.67755        -0.68061
C         30.35325        48.82544        -0.84551
C         29.11335        48.09531        -0.68927
C         30.35677        50.27361        -0.71940
C         29.12811        50.95735        -0.49996
C         30.35501        53.03674        -0.14362
C         29.15968        52.34029        -0.22167
C         32.86976        18.75918        -0.53058
C         32.81712        20.17485        -0.21391
C         31.53229        20.89692        -0.15260
C         32.76642        23.04597         0.21859
C         31.49184        22.28819         0.11730
C         32.66851        24.52757         0.13807
C         31.52417        25.16561         0.80101
C         32.72008        27.39029         0.27209
C         31.48495        26.67833         0.66431
C         32.68805        28.79514         0.24715
C         31.47519        29.49774         0.12213
C         32.71751        31.65213        -0.15370
C         31.52957        30.90237        -0.18924
C         32.75498        33.07541        -0.46423
C         31.52931        33.73561        -0.55947
C         33.11636        36.06302        -1.03821
C         31.33585        35.10108        -0.97405
C         32.89798        37.45771        -0.74861
C         31.62531        38.09172        -0.81139
C         32.84342        40.25974        -0.84885
C         31.61035        39.52934        -0.76336
C         32.82550        41.68958        -0.95364
C         31.60845        42.36726        -0.94996
C         32.82208        44.53449        -0.64420
C         31.60290        43.84753        -1.24927
C         32.82608        46.01639        -0.93992
C         31.59930        46.68845        -0.93760
C         32.82536        48.83985        -1.20407
C         31.55578        48.12199        -1.00130
C         32.84267        50.35747        -1.05226
C         31.57189        51.01465        -0.70321
C         32.85468        53.12770        -0.32094
C         31.58818        52.39462        -0.38680
C         32.88674        54.52267        -0.13614
C         35.28766        18.59107        -0.02732
C         34.02733        18.04341        -0.54911
C         35.28329        20.12164         0.20966
C         34.02306        20.84160        -0.04899
C         35.39663        22.95705        -0.18285
C         34.07489        22.31307         0.08674
C         35.50888        24.27704        -0.61360
C         33.64418        25.31681        -0.39905
C         35.22290        27.27614        -0.06908
C         33.90838        26.69167        -0.05645
C         35.25123        28.68367         0.43245
C         33.96597        29.48771         0.47066
C         35.25575        31.73810         0.27778
C         33.94874        31.00279         0.35189
C         35.24087        33.12559        -0.23388
C         34.05072        33.79805        -0.47607
C         35.30578        35.97671         0.00453
C         34.11660        35.25896        -0.52887
C         35.32118        37.49938        -0.13560
C         34.08812        38.19615        -0.54416
C         35.36899        40.23437        -1.00771
C         34.07818        39.57248        -0.74797
C         35.35739        41.70598        -1.27370
C         34.07754        42.44286        -1.09144
C         35.32263        44.56709        -1.44954
C         34.08810        43.80422        -1.03599
C         35.32994        46.00564        -0.99311
C         34.08653        46.72352        -0.96970
C         35.37018        48.89177        -1.23427
C         34.08721        48.12369        -1.03631
C         35.32225        50.32545        -0.72585
C         34.12241        51.02603        -0.70542
C         35.32740        53.14603        -0.28773
C         34.09572        52.43399        -0.41499
C         35.32810        54.56209        -0.11782
C         34.08600        55.22244        -0.04842
C         37.83414        15.85045        -0.61966
C         36.65552        16.52031        -0.49578
C         37.80058        18.66343        -0.08984
C         36.59302        17.93183        -0.24747
C         37.76852        20.09780         0.15224
C         36.58859        20.82677         0.19398
C         37.80572        23.02856         0.02350
C         36.60865        22.27483         0.09771
C         37.81948        24.44565        -0.12505
C         36.59978        25.14061        -0.35254
C         37.74304        27.30654        -0.15534
C         36.48336        26.59070        -0.23235
C         37.79490        28.72554        -0.01058
C         36.56604        29.43935         0.42248
C         37.82077        31.60416         0.01698
C         36.55116        30.94578         0.36810
C         37.83201        33.08123        -0.15246
C         36.54488        33.83812        -0.29717
C         37.80971        36.00411        -0.02270
C         36.58941        35.28822        -0.05906
C         37.82530        37.44622        -0.15675
C         36.61512        38.18302        -0.31161
C         37.85919        40.26568        -0.71396
C         36.62874        39.54350        -0.65130
C         37.86419        41.68726        -0.94530
C         36.63304        42.44278        -1.10640
C         37.84531        44.59688        -1.16062
C         36.59841        43.81659        -1.13564
C         37.81675        46.00132        -0.71321
C         36.55110        46.70905        -0.77157
C         37.70219        48.83346        -0.19378
C         36.54023        48.11669        -0.69648
C         37.77799        50.30149        -0.30119
C         36.55694        51.01546        -0.46100
C         37.80865        53.12301        -0.17799
C         36.56579        52.42989        -0.31448
C         37.82105        54.55353        -0.09314
C         36.59289        55.27594        -0.04674
C         37.85889        57.35747         0.07466
C         36.64700        56.68160         0.05704
C         40.34123        14.47964         0.11773
C         40.35046        15.84796        -0.12342
C         39.14565        16.57469        -0.69972
C         40.28818        18.71791        -0.16115
C         39.05466        17.99972        -0.20945
C         40.28317        20.10581        -0.09164
C         39.05295        20.81741         0.24691
C         40.32415        23.04398        -0.17769
C         39.08158        22.33661         0.21005
C         40.29819        24.49082        -0.28713
C         39.05557        25.18356        -0.17649
C         40.24162        27.31321        -0.39391
C         39.00532        26.60146        -0.26413
C         40.25014        28.74601        -0.35593
C         39.01106        29.44028        -0.09490
C         40.26935        31.63746         0.05278
C         38.99548        30.89101        -0.00626
C         40.29490        33.09393        -0.02923
C         39.04807        33.81656         0.38560
C         40.26452        36.01480         0.10419
C         39.05360        35.30200         0.07156
C         40.28425        37.42539        -0.05235
C         39.06754        38.14436        -0.22889
C         40.32433        40.27576        -0.57052
C         39.07572        39.56599        -0.47508
C         40.31703        41.67068        -0.85487
C         39.10794        42.36440        -0.99111
C         40.36739        44.55734        -0.72282
C         39.14948        43.83680        -1.16474
C         40.26680        45.93253        -0.39715
C         39.02730        46.63581        -0.40620
C         40.24553        48.84843         0.01232
C         39.00285        48.06361        -0.00654
C         40.24845        50.23273         0.04338
C         39.00325        50.97220        -0.12315
C         40.28391        53.09955        -0.03842
C         39.03209        52.40003        -0.11823
C         40.30376        54.51021        -0.08979
C         39.07016        55.24795        -0.07318
C         40.35689        57.37913        -0.08659
C         39.08688        56.66941        -0.00709
C         40.43792        58.77079         0.00169
C         42.71218        14.50547         0.62641
C         41.51787        13.81481         0.50884
C         42.76671        15.90164         0.39787
C         41.56300        16.58213         0.04625
C         42.76022        18.73935         0.05533
C         41.56933        18.01138        -0.10170
C         42.76972        20.17532        -0.11525
C         41.49950        20.85209        -0.54172
C         42.75551        23.02357        -0.50019
C         41.49887        22.33936        -0.29990
C         42.72595        24.44720        -0.99967
C         41.48388        25.19544        -0.56735
C         42.72601        27.32928        -0.69565
C         41.47791        26.60959        -0.56131
C         42.71046        28.75032        -0.76008
C         41.46626        29.43584        -0.57174
C         42.65566        31.68395        -0.87746
C         41.54048        30.87280        -0.28009
C         42.69758        33.15990        -0.61030
C         41.61123        33.73520         0.32779
C         42.82392        35.98775         0.01422
C         41.55072        35.27546         0.30652
C         42.81638        37.45547        -0.18335
C         41.55600        38.20434         0.19879
C         42.79237        40.32742        -0.40311
C         41.55247        39.61236        -0.34042
C         42.84031        41.66763        -0.72627
C         41.59996        42.40271        -1.17486
C         42.79626        44.47742        -0.26022
C         41.58488        43.84872        -0.69276
C         42.70017        45.87221         0.32918
C         41.56256        46.70797        -0.31362
C         42.74472        48.84897         0.26373
C         41.46603        48.06574         0.39369
C         42.74543        50.23386         0.34318
C         41.49705        50.96239         0.19860
C         42.76857        53.07828         0.19162
C         41.51656        52.36212         0.10811
C         42.79719        54.48316        -0.04218
C         41.55844        55.21551        -0.18525
C         42.78980        57.33551        -0.64482
C         41.55719        56.61855        -0.29277
C         42.80167        58.79108        -0.55399
C         41.66398        59.45966        -0.19125
C         45.24280        16.01913         0.79894
C         44.00474        16.64788         0.51363
C         45.20740        18.80178         0.48255
C         43.99963        18.05962         0.34099
C         45.16591        20.27398         0.41158
C         43.92722        20.91858        -0.05560
C         45.21793        22.99819        -0.83941
C         43.93844        22.33421        -0.37794
C         45.19384        24.50982        -0.68421
C         44.01928        25.19231        -0.74585
C         45.18009        27.38348        -0.89297
C         43.98101        26.65700        -0.76477
C         45.16949        28.80487        -0.97467
C         43.93369        29.47468        -0.91070
C         45.17357        31.68102        -1.42285
C         43.84472        30.88598        -1.43764
C         45.17804        33.19179        -1.29650
C         43.97196        33.90131        -0.77350
C         45.27054        35.95983        -0.39429
C         44.03256        35.23033        -0.40760
C         45.26817        37.38811        -0.21558
C         44.00740        38.11803        -0.21544
C         45.33283        40.24039        -0.30128
C         44.02776        39.60184         0.08079
C         45.39169        41.69349        -0.46301
C         44.12517        42.45959        -0.84309
C         45.13106        44.42836         0.60812
C         44.00287        43.81373        -0.16341
C         45.22277        45.90827         0.65513
C         44.02359        46.60452         0.19723
C         45.24313        48.80555         0.60666
C         44.01657        48.12375         0.19053
C         45.21006        50.24063         0.70065
C         43.99837        50.94903         0.50865
C         45.17160        53.13348         0.74768
C         43.98434        52.38929         0.47239
C         45.19417        54.52621         0.54770
C         44.04364        55.16759         0.01110
C         45.41041        57.26122        -0.34663
C         44.14063        56.53423        -0.50758
C         46.41754        16.74124         0.87728
C         47.69336        18.90338         0.68166
C         46.43592        18.15204         0.71282
C         47.71768        20.28438         0.39566
C         46.46244        21.05050         0.33780
C         47.69405        23.03460        -0.44299
C         46.49204        22.39060        -0.28612
C         47.69440        24.38632        -1.13256
C         46.51705        25.24679        -0.58557
C         47.70479        27.42588        -1.01189
C         46.44215        26.63317        -1.27268
C         47.68941        28.81062        -0.91688
C         46.43471        29.55286        -1.04947
C         47.69143        31.68402        -0.99882
C         46.45335        30.93904        -1.17911
C         47.71064        33.09402        -0.93597
C         46.51474        33.94934        -1.29401
C         47.71032        35.92610        -0.37205
C         46.49017        35.27193        -0.56540
C         47.72894        37.30515         0.23524
C         46.46597        38.07430        -0.05074
C         47.73795        40.19242         0.21725
C         46.49214        39.51317        -0.07822
C         47.71957        41.51317         0.60485
C         46.57945        42.35520         0.21713
C         47.63442        44.45219         1.42845
C         46.40257        43.68319         0.87071
C         47.68947        45.90028         0.97858
C         46.41857        46.61129         0.84056
C         47.63381        48.79326         1.15916
C         46.39561        48.06108         0.85136
C         47.65708        50.26579         1.02437
C         46.44689        50.94330         0.92159
C         47.70785        53.13145         1.34721
C         46.38827        52.39756         1.16477
C         47.71241        54.62984         1.21976
C         46.41150        55.33666         0.83516
C         46.46569        56.70225         0.26949
C         50.13100        18.91549         0.73716
C         48.93636        18.23738         0.84773
C         50.17080        20.29814         0.42696
C         48.94289        20.99330         0.23578
C         50.16915        23.11212        -0.13715
C         48.94519        22.39137        -0.10208
C         50.21116        24.51116        -0.45964
C         49.01387        25.16320        -1.01242
C         50.20873        27.41594        -0.60963
C         48.98763        26.69954        -1.01679
C         50.17273        28.84461        -0.60419
C         48.93924        29.53991        -0.78542
C         50.16328        31.67816        -0.71203
C         48.92887        30.96475        -0.81347
C         50.16404        33.10196        -0.70516
C         48.92784        33.80547        -0.75068
C         50.16428        35.95627        -0.61668
C         48.93118        35.23727        -0.58758
C         50.17308        37.40713        -0.47107
C         48.97954        38.07834        -0.09043
C         50.20175        40.19902         0.10317
C         48.98352        39.45762         0.12371
C         50.22385        41.56810         0.49493
C         48.97536        42.19645         0.97316
C         50.19776        44.43310         0.96724
C         48.95496        43.68746         1.24592
C         50.18689        45.84877         0.90411
C         48.90303        46.55300         0.92580
C         50.13801        48.78229         0.68728
C         48.92653        48.02421         1.09000
C         50.15518        50.24417         0.89883
C         48.93373        50.95531         1.06388
C         50.17840        53.07214         0.92727
C         48.96447        52.38064         1.10352
C         50.15619        54.52535         0.85820
C         49.02346        55.25592         0.96900
C         52.65434        20.35334         0.50479
C         51.41220        21.02084         0.34843
C         52.63176        23.15527         0.15903
C         51.40236        22.42668         0.13273
C         52.62771        24.57874         0.01470
C         51.40414        25.25758        -0.30063
C         52.63684        27.42954        -0.18624
C         51.40456        26.70506        -0.38938
C         52.63426        28.86135        -0.29935
C         51.41059        29.56262        -0.49237
C         52.64645        31.70572        -0.60214
C         51.41453        30.98750        -0.59898
C         52.65043        33.13823        -0.72627
C         51.39335        33.82814        -0.71332
C         52.60538        35.96724        -1.09428
C         51.36639        35.24489        -0.76552
C         52.57164        37.47321        -1.12133
C         51.35636        38.15484        -0.64203
C         52.61218        40.28852        -0.27134
C         51.40220        39.54183        -0.29186
C         52.64504        41.61900         0.19787
C         51.42036        42.29076         0.54650
C         52.63573        44.43792         0.83775
C         51.41461        43.72291         0.80713
C         52.66004        45.85461         0.88036
C         51.41722        46.54851         0.82083
C         52.68819        48.75659         0.74185
C         51.43107        48.00909         0.59152
C         52.65361        50.17976         0.76779
C         51.40060        50.91647         0.82277
C         52.67142        53.01584         0.80916
C         51.41162        52.34631         0.84059
C         53.84078        21.04967         0.49830
C         55.09147        23.19840         0.45353
C         53.85906        22.45997         0.35760
C         55.05600        24.61517         0.43488
C         53.84690        25.30580         0.18699
C         55.08927        27.47103         0.17605
C         53.84573        26.74569         0.07926
C         55.09225        28.89173        -0.00994
C         53.86588        29.58562        -0.22494
C         55.12022        31.70551        -0.40616
C         53.88399        31.00308        -0.42401
C         55.16986        33.11914        -0.92725
C         53.86826        33.86392        -0.79905
C         55.11166        36.00813        -0.93455
C         53.89973        35.27014        -0.94540
C         55.12993        37.44305        -0.96413
C         53.87518        38.20454        -1.09481
C         55.13724        40.27234        -0.27723
C         53.87345        39.66339        -0.70087
C         55.13048        41.62024         0.18417
C         53.89707        42.28590         0.38561
C         55.20378        44.42494         0.91767
C         53.88636        43.66080         0.89267
C         55.15544        45.89848         0.85952
C         53.92243        46.58562         0.88099
C         55.12828        48.76962         0.90459
C         53.90485        48.04046         0.84400
C         55.13206        50.17588         0.82774
C         53.88762        50.89373         0.79046
C         53.85408        52.32016         0.80144
C         57.54733        23.23802         0.53559
C         56.34378        22.53199         0.53376
C         57.58269        24.63169         0.59566
C         56.29278        25.36822         0.85687
C         57.54477        27.50197         0.40006
C         56.31086        26.80466         0.41682
C         57.54865        28.92177         0.24797
C         56.31910        29.61305         0.06558
C         57.56339        31.75689         0.03398
C         56.32134        31.03849        -0.10651
C         57.55457        33.26634         0.12075
C         56.33957        33.93127        -0.44627
C         57.60623        36.02393        -0.68883
C         56.36150        35.31537        -0.64062
C         57.61904        37.45868        -1.13687
C         56.32571        38.15710        -0.80944
C         57.56723        40.19896        -0.09604
C         56.33211        39.54020        -0.41494
C         57.59490        41.57324         0.11011
C         56.38795        42.31883         0.28658
C         57.65375        44.44469         0.50839
C         56.43073        43.71579         0.52258
C         57.62362        45.86916         0.67834
C         56.41416        46.57373         0.82480
C         57.68947        48.82167         1.06608
C         56.39837        48.03613         1.07823
C         57.59422        50.25220         0.74098
C         56.39395        50.87880         0.69126
C         60.06328        24.70109         0.63360
C         58.82236        25.36722         0.58644
C         60.02907        27.51995         0.47977
C         58.79902        26.79898         0.51556
C         60.01355        28.95687         0.37937
C         58.78706        29.64708         0.28643
C         60.03433        31.89669         0.38876
C         58.75640        31.08803         0.24311
C         59.99661        33.02035        -0.70252
C         58.80712        33.89422        -0.43934
C         60.09898        35.94140        -0.81054
C         58.84366        35.28607        -0.61975
C         60.16084        37.45672        -0.88852
C         58.83725        38.07590        -0.54572
C         60.07009        40.10316         0.31906
C         58.76150        39.34140         0.25635
C         60.10587        41.48307         0.37709
C         58.90357        42.30043        -0.05625
C         60.12747        44.38546         0.60143
C         58.89936        43.74118         0.40663
C         60.17734        45.83090         0.74831
C         58.91950        46.58739         0.56921
C         60.23287        48.67892         1.22638
C         58.97056        48.09751         0.76071
C         61.26180        25.41665         0.62187
C         61.25161        26.80188         0.54549
C         61.24740        29.71355         0.34503
C         61.27404        31.06372         0.32122
C         61.26410        33.79637        -0.87350
C         61.27889        35.16588        -0.94370
C         61.29306        38.02194        -0.06575
C         61.25219        39.26789         0.45118
C         61.32160        42.22432         0.59092
C         61.33125        43.59103         0.66252
C         61.35183        46.52454         0.97370
C         61.37009        47.92658         1.24721
O         34.45543        24.76246        -1.38601
O         31.71746        25.99506         1.97002
O         50.65277        48.38425        -0.62417
O         58.98440        47.52245        -0.58251
O         43.49845        56.75540        -1.79092
O         44.22021        47.32816        -1.05013
O         36.03424        28.86118         1.65413
O         38.60602        44.36218        -2.41420
O         39.20434        21.62438         1.49035
O         32.21646        35.53534        -1.97030
O         49.10347        42.71104         2.34562
O         33.55319        22.69553         1.43061
O         29.48830        24.64381         2.02914
O         42.36769        35.77358         1.44392
O         35.99291        31.62138         1.54396
O         38.13115        48.33810         1.14528
O         35.38851        40.77203        -2.40230
O         37.39487        33.46392        -1.49162
O         45.09489        32.54376        -2.61716
O         46.93327        52.69987         2.50230
O         46.89038        55.29238         2.22479
O         28.01408        31.21558        -1.53803
O         48.36580        48.39431         2.38775
O         32.83965        49.74923        -2.39581
O         45.33562        43.66729         1.86639
O         45.70009        20.96679         1.60565
O         35.16465        19.16714         1.31136
O         52.43351        36.71062        -2.36669
O         41.20010        31.11476         1.11013
O         33.80170        30.34566         1.64556
O         54.62079        43.85890         2.15345
O         49.25476        25.90444        -2.25065
O         27.20773        34.50566         2.01677
O         46.49288        42.26760        -1.26125
O         30.28061        32.27023        -1.89461
O         35.13424        36.84333         1.17765
O         22.96096        26.92098        -0.20493
O         57.09692        48.42077         2.33913
O         42.14407        32.64319        -1.87230
O         53.91292        39.24898        -2.12617
O         35.26474        44.64354        -2.91546
H         35.30917        43.72881        -3.26802
O         43.52225        30.64361        -2.83166
H         43.37929        31.52997        -3.23804
O         60.44424        37.77654        -2.29750
H         59.58534        37.65209        -2.77959
O         57.54250        33.59637         1.55999
H         58.44721        33.37334         1.90012
O         35.55323        49.01198        -2.69290
H         34.68465        49.32160        -3.04891
O         39.44773        16.68115        -2.14732
H         38.73750        17.21924        -2.55705
O         43.99922        39.70100         1.54519
H         43.13549        39.30020         1.83826
O         47.50018        24.09337        -2.53241
H         47.71801        24.92181        -3.02732
O         47.77034        37.11223         1.70224
H         46.87436        36.83372         1.98835
O         60.05896        32.58485         1.67764
H         60.20890        31.91014         2.37300
O         59.04974        42.40505        -1.52593
H         59.87392        42.90877        -1.69953
O         27.42587        28.50233        -1.72166
H         27.44992        29.41581        -2.09769
O         45.19676        22.75809        -2.29379
H         46.01678        23.19427        -2.65983
O         42.48835        45.68876         1.74069
H         41.56776        45.38951         1.88810
O         59.78204        32.28535        -1.95225
H         59.68714        32.94196        -2.67424
O         41.46001        20.74347        -2.02432
H         42.23412        21.24135        -2.36819
O         44.25688        42.76872        -2.27571
H         45.22115        42.88904        -2.45214
O         29.85267        34.85280         1.62208
H         29.88716        35.65141         2.18758
O         58.49496        38.93378         1.65902
H         58.40641        39.75252         2.19248
O         28.15901        41.68668         1.43464
H         28.30772        42.62334         1.68914
O         57.73752        37.48275        -2.64408
H         57.17146        38.21356        -2.97618
O         31.72227        43.97711        -2.69532
H         30.95350        43.53042        -3.10696
O         32.69920        44.41342         0.80603
H         33.45485        44.88352         1.21639
O         56.20143        25.43620         2.34513
H         56.18167        24.50988         2.66922
O         41.85896        47.00686        -1.69437
H         41.94759        46.16428        -2.18730
O         46.77224        34.37469        -2.67083
H         46.42294        33.65894        -3.25336
O         24.79394        25.02674         2.36390
H         24.12187        25.23253         3.04708
O         46.82861        25.46020         0.81169
H         46.03275        25.81726         1.25851
O         46.34161        26.41427        -2.71238
H         46.19499        27.28687        -3.13562
O         47.43724        44.58958         2.84963
H         47.73271        43.74941         3.26894
O         38.98559        33.69330         1.84595
H         39.90189        33.54025         2.17823
O         41.94504        33.35286         1.68848
H         42.39611        34.12973         2.10137
O         41.26838        47.81848         1.82325
H         41.03889        48.67171         2.24866
O         28.39488        34.17915        -1.65186
H         28.47933        33.37713        -2.21937
O         55.39777        32.95926        -2.38837
H         55.25231        33.83763        -2.80268
O         42.64532        24.32379        -2.46297
H         43.46714        23.84899        -2.74032
O         26.37299        39.32328        -1.95434
H         25.61497        38.70946        -2.05851
O         41.62674        42.46589        -2.64082
H         42.55869        42.67196        -2.89983
O         24.71418        24.73099        -1.25084
H         25.37588        24.39819        -1.89153
O         41.62211        38.35782         1.67655
H         41.77969        37.44493         2.02990
H         22.72750        23.35432         1.08070
H         20.87039        24.62040         2.07042
H         21.10912        27.03877         2.61075
H         20.92924        29.08377         2.19678
H         21.07304        31.50648         2.42232
H         21.07600        33.39685         2.00968
H         21.09880        35.80015         1.75783
H         21.09525        37.66221         1.73798
H         20.98323        40.03097         1.28376
H         20.85279        41.87087         0.68914
H         20.80250        44.27479         0.35430
H         20.75920        46.13129        -0.01741
H         22.87028        49.83874        -0.42691
H         20.75828        48.58595        -0.23312
H         24.37588        22.35157         0.17751
H         24.50119        50.78214        -0.44188
H         26.49858        21.20133         0.27555
H         26.60006        51.99832        -0.49256
H         30.25873        19.14898        -0.45783
H         28.15469        20.32524        -0.22320
H         30.32362        54.10526         0.10554
H         28.22690        52.88555        -0.02759
H         31.95115        18.26698        -0.87989
H         31.95063        55.09283        -0.07200
H         34.01966        17.02203        -0.95698
H         34.04370        56.31164         0.08432
H         37.81405        14.76797        -0.80893
H         35.71402        15.95252        -0.52648
H         37.84393        58.45381         0.13521
H         35.72055        57.26888         0.10694
H         39.41939        13.89469        -0.00169
H         39.54009        59.36753         0.20787
H         43.61888        13.95453         0.90943
H         41.48956        12.73297         0.69908
H         43.71901        59.34235        -0.79876
H         41.67435        60.55561        -0.11046
H         45.28723        14.93146         0.94350
H         45.49260        58.26886        -0.77706
H         47.34900        16.19530         1.07528
H         47.39048        57.28150         0.39739
H         51.06244        18.35835         0.89939
H         48.96417        17.16617         1.08412
H         51.10079        55.06130         0.69792
H         49.08359        56.35248         0.93686
H         52.68526        19.26452         0.63612
H         52.71305        54.11224         0.83093
H         54.77627        20.49283         0.63478
H         54.79154        52.89030         0.82326
H         58.47902        22.66075         0.46138
H         56.38979        21.43662         0.50039
H         58.51613        50.80055         0.49849
H         56.37839        51.95021         0.45121
H         60.10583        23.60627         0.69845
H         60.23572        49.71185         1.60280
H         62.21830        24.87823         0.67174
H         62.21194        27.33201         0.53156
H         62.20527        29.17635         0.34019
H         62.24074        31.58830         0.33464
H         62.19001        33.23563        -1.06776
H         62.23314        35.68031        -1.12994
H         62.21068        37.42441         0.03732
H         62.14416        39.67112         0.95484
H         62.26562        41.68021         0.73399
H         62.29225        44.09462         0.83124
H         62.30563        45.98625         1.05413
H         62.32013        48.38063         1.56300
