         404
 CSIRO Nanostructure Databank - Neutral Graphene Oxide Data Set
C          1.55622         3.32701        -1.46350
C          0.34573         3.97307        -1.71011
C          1.35730         6.15663        -1.27628
C          0.24272         5.36229        -1.62197
C          1.27981         7.60392        -1.18152
C          0.06876         8.31328        -1.43485
C          1.13067        10.48693        -1.02442
C          0.00011         9.68666        -1.36830
C          1.05971        11.91281        -1.01794
C         -0.07703        12.66791        -1.42131
C          1.07558        14.82620        -1.09311
C         -0.10175        14.04969        -1.37243
C          1.09393        16.29191        -1.09913
C         -0.09582        17.02866        -1.20465
C          1.09902        19.14762        -0.98237
C         -0.09635        18.41820        -1.12503
C          1.10337        20.60036        -0.92230
C         -0.09420        21.33207        -0.87514
C          1.12654        23.43440        -0.86166
C         -0.07719        22.72358        -0.83746
C          1.05717        24.94157        -0.89960
C          0.07884        25.50914         0.10141
C          1.25604        27.65300         0.08939
C          0.15349        26.80184         0.48964
C          1.26781        29.03846         0.40955
C          0.10922        29.68968         0.94490
C          1.29137        31.82830         1.12482
C          0.11584        31.02346         1.25962
C          1.28632        33.20979         1.40848
C          0.11842        33.92812         1.78689
C          1.38443        36.00087         2.14213
C          0.14735        35.27919         2.07249
C          1.43117        37.35597         2.59170
C          3.95176         3.42812        -0.85785
C          2.70124         4.07382        -1.11796
C          3.75603         6.25561        -0.66530
C          2.60031         5.49896        -1.01846
C          3.67137         7.67498        -0.57165
C          2.42990         8.35376        -0.83017
C          3.53397        10.50368        -0.38522
C          2.36427         9.79093        -0.72810
C          3.50040        11.95786        -0.20480
C          2.20319        12.69813        -0.53777
C          3.53952        14.84756        -0.84636
C          2.24832        14.14380        -0.80467
C          3.56753        16.31663        -0.80416
C          2.32296        17.00817        -0.92890
C          3.58052        19.14258        -0.90531
C          2.33073        18.43538        -0.91864
C          3.57685        20.57400        -0.97241
C          2.34484        21.30483        -0.94413
C          3.60289        23.44887        -1.11567
C          2.35378        22.73685        -0.95351
C          3.61497        24.91798        -1.07438
C          2.39208        25.63696        -0.80096
C          3.58143        27.81733        -0.82828
C          2.39016        27.00821        -0.51917
C          3.62567        29.25507        -0.42250
C          2.44470        29.84242         0.23210
C          3.77338        31.86406         0.77472
C          2.49882        31.17772         0.65334
C          3.79674        33.21359         1.19742
C          2.52717        34.01577         1.10046
C          3.83209        35.95722         2.05190
C          2.58751        35.33119         1.83110
C          3.86690        37.33191         2.46875
C          2.63285        38.01119         2.71574
C          6.33925         3.49536        -0.21135
C          5.09309         4.14979        -0.53996
C          6.15450         6.33783        -0.12027
C          5.01099         5.59633        -0.45370
C          6.05869         7.73924         0.07393
C          4.82787         8.41140        -0.20300
C          5.90953        10.56832         0.28789
C          4.76368         9.83491        -0.12371
C          5.92659        12.00380         0.17655
C          4.77613        12.68535        -0.17654
C          6.03596        14.91050        -0.25309
C          4.82742        14.11324        -0.53003
C          6.04408        16.27503        -0.50533
C          4.79666        16.99685        -0.73774
C          6.05604        19.13553        -1.01418
C          4.81155        18.42930        -0.86489
C          6.02386        20.54290        -1.20231
C          4.80647        21.27652        -1.11654
C          6.04806        23.41547        -1.55546
C          4.78687        22.71392        -1.24767
C          6.07411        24.92862        -1.43913
C          4.82648        25.60972        -1.08741
C          6.17360        27.73936        -0.68239
C          4.89167        27.08125        -1.04231
C          6.21460        29.08674        -0.24970
C          4.98544        29.90936        -0.19884
C          6.23538        31.70015         0.98684
C          5.00912        31.16800         0.56718
C          6.21552        32.99874         1.68486
C          5.00093        33.83113         1.58277
C          6.31057        35.86582         2.15982
C          5.05155        35.21066         1.92451
C          6.32466        37.30838         2.39472
C          5.10269        37.99069         2.58297
C          8.72235         3.58312         0.45295
C          7.49226         4.20186         0.06372
C          8.57858         6.39597         0.59681
C          7.51525         5.68892        -0.19830
C          8.36309         7.75723         1.06242
C          7.15527         8.47976         0.61217
C          8.15241        10.62724         1.33338
C          7.07151         9.87170         0.72521
C          8.05346        12.07748         1.29616
C          7.11837        12.74765         0.55103
C          8.58549        14.89570        -0.07418
C          7.28121        14.14017         0.01385
C          8.52297        16.33740        -0.43118
C          7.31341        17.00246        -0.59628
C          8.55098        19.08595        -1.12922
C          7.30636        18.41282        -0.95562
C          8.57540        20.50236        -1.53144
C          7.26782        21.25392        -1.56224
C          8.54512        23.40746        -1.45479
C          7.33337        22.71645        -1.46378
C          8.55951        24.85533        -1.29765
C          7.36136        25.58691        -1.17858
C          8.63025        27.58477        -0.56918
C          7.37069        26.95461        -0.77657
C          8.64845        28.87444         0.15849
C          7.42039        29.68274         0.23027
C          8.75089        31.62267         1.10791
C          7.46901        30.99119         0.78464
C          8.80341        33.01814         1.58036
C          7.54250        33.69511         1.98521
C          8.77809        35.86997         2.34737
C          7.51092        35.15879         2.13191
C          8.78496        37.34738         2.28160
C          7.54298        38.01159         2.40628
C         11.08453         3.66262         1.13138
C          9.86163         4.31770         0.76770
C         10.95689         6.57008         1.19698
C          9.77861         5.77897         0.88666
C         10.94482         7.96294         1.35527
C          9.58964         8.55242         1.55657
C         11.29486        11.11858         1.62244
C          9.31061         9.99223         1.73307
C         11.25815        12.47296         1.20035
C         10.05811        13.25462         1.20622
C         11.10574        15.02209        -0.06761
C          9.90572        14.38804         0.42301
C         11.07704        16.31343        -0.61795
C          9.77473        16.92774        -1.04256
C         11.02843        19.11846        -1.20572
C          9.78933        18.42774        -1.04036
C         11.04628        20.55042        -1.32495
C          9.82757        21.27115        -1.40847
C         11.04875        23.40274        -1.41436
C          9.80505        22.68175        -1.43754
C         11.02485        24.82762        -1.41070
C          9.81445        25.55282        -1.24614
C         11.02962        27.84007        -1.15564
C          9.81976        26.95043        -0.92248
C         11.19265        28.98894        -0.17631
C          9.97089        29.53766         0.46256
C         11.25942        31.55942         1.17775
C          9.94683        30.95366         0.87296
C         11.29130        33.00365         1.55615
C          9.99427        33.69767         1.69078
C         11.27917        35.91109         1.77006
C         10.08172        35.11537         2.13222
C         11.22568        37.34542         1.86784
C          9.99480        38.02153         2.15062
C         13.48657         3.78402         1.70904
C         12.25496         4.37794         1.29333
C         13.51105         6.60181         1.04493
C         12.23185         5.83821         1.02399
C         13.44856         8.06674         1.21122
C         12.19896         8.74452         1.25806
C         13.43807        10.81118         0.55320
C         12.25609        10.19588         1.17286
C         13.56074        12.25405         0.42540
C         12.39856        13.03112         0.55872
C         13.56726        14.95851        -0.38390
C         12.36168        14.36276         0.07306
C         13.54037        16.30973        -0.81515
C         12.28779        16.98969        -0.90848
C         13.50587        19.07750        -1.37217
C         12.26048        18.39388        -1.20716
C         13.50307        20.50560        -1.35140
C         12.29653        21.25387        -1.34219
C         13.53545        23.43000        -1.35421
C         12.29186        22.69097        -1.37806
C         13.54580        24.80762        -1.41218
C         12.29238        25.56305        -1.55635
C         13.59952        27.74446        -1.09784
C         12.31748        27.06363        -1.39930
C         13.60424        29.03684        -0.61517
C         12.38756        29.65725        -0.12297
C         13.72152        31.79328         0.39625
C         12.53311        30.92430         0.65092
C         13.72253        33.16807         0.69276
C         12.55443        33.80904         1.34389
C         13.62264        36.04008         1.03569
C         12.45438        35.28777         1.33183
C         13.59286        37.46499         1.21071
C         12.38748        38.08990         1.60966
C         15.84430         3.86505         2.34724
C         14.67238         4.49109         1.83262
C         15.88821         6.71161         1.96511
C         14.84262         5.88340         1.24067
C         15.90127         8.14391         1.79020
C         14.71230         8.73620         1.28627
C         16.03722        10.84094         0.83317
C         14.81498        10.05832         0.72028
C         16.02979        12.15909         0.28610
C         14.79449        12.85503         0.06364
C         16.01808        14.86777        -0.69177
C         14.79431        14.22843        -0.31875
C         15.99056        16.20540        -1.17200
C         14.76939        16.95554        -1.18825
C         15.94936        19.09599        -1.95921
C         14.73109        18.34376        -1.46690
C         16.06451        20.44036        -1.27590
C         14.78008        21.19727        -1.11352
C         16.10695        23.33581        -1.51483
C         14.81602        22.70006        -1.14176
C         16.10153        24.81792        -1.49786
C         14.81254        25.55841        -1.32948
C         16.02386        27.71515        -1.47207
C         14.82626        27.04387        -1.40545
C         16.10405        29.11027        -1.02313
C         14.87964        29.75558        -0.44537
C         16.02869        31.97159        -0.44631
C         14.87044        31.22388        -0.22312
C         16.04405        33.36538        -0.14201
C         14.86137        33.96879         0.39089
C         15.99503        36.16144         0.38066
C         14.82838        35.39235         0.61179
C         15.97226        37.57914         0.62179
C         14.77572        38.21025         1.00853
C         18.20931         3.94076         3.04701
C         16.98411         4.60119         2.64510
C         18.01346         6.85194         3.14843
C         16.95060         6.04608         2.54041
C         18.12042         8.29114         2.83108
C         17.07086         8.95381         2.06351
C         18.34506        11.17161         1.54479
C         17.15367        10.30725         1.54028
C         18.45986        12.28415         0.63787
C         17.25777        12.85488         0.06326
C         18.50972        14.75910        -0.94988
C         17.24344        14.14212        -0.52277
C         18.53961        16.18141        -1.33200
C         17.24962        16.83792        -1.63016
C         18.55518        19.04310        -1.84888
C         17.26116        18.31542        -1.94673
C         18.59251        20.45731        -1.81519
C         17.35158        21.18764        -1.44449
C         18.55210        23.32744        -2.03430
C         17.28508        22.65086        -1.63024
C         18.57812        24.83435        -2.16101
C         17.27743        25.56675        -2.03255
C         18.58223        27.72530        -1.70989
C         17.27703        27.05236        -1.90213
C         18.55834        29.21155        -1.65093
C         17.25979        29.93768        -1.47424
C         18.51311        32.10066        -1.00395
C         17.17427        31.45630        -1.29887
C         18.47970        33.49712        -0.73812
C         17.23124        34.13902        -0.35516
C         18.38031        36.33118        -0.21120
C         17.20915        35.53984        -0.07117
C         18.36271        37.70414         0.12024
C         17.17690        38.32340         0.50126
C         19.31323         4.62518         3.43360
C         20.50172         6.85687         3.76415
C         19.27600         6.08255         3.64464
C         20.41264         8.22132         3.81242
C         19.22336         8.91083         3.42137
C         20.61284        11.73312         2.35916
C         19.41353        11.02629         2.46036
C         20.77297        12.67435         1.34502
C         19.69487        12.98772         0.50758
C         20.99601        14.98512        -0.47325
C         19.81616        14.10803        -0.45878
C         20.96354        16.21752        -1.03932
C         19.73802        16.86406        -1.47421
C         20.97967        19.01548        -1.87865
C         19.76210        18.29977        -1.78567
C         21.01010        20.40023        -1.93581
C         19.82248        21.16038        -1.83637
C         20.98471        23.39319        -1.78209
C         19.83884        22.62592        -1.83040
C         20.98409        24.82710        -1.79565
C         19.83526        25.57949        -1.92956
C         21.01313        27.83628        -1.84784
C         19.78529        27.04601        -1.80648
C         21.03782        29.18299        -1.67543
C         19.81602        29.90867        -1.15709
C         20.91767        32.19523        -1.24191
C         19.73770        31.43315        -1.23180
C         20.88104        33.58193        -1.09352
C         19.68308        34.24202        -0.80546
C         20.82518        36.31381         0.10193
C         19.67941        35.74876        -0.72101
C         20.81660        37.60373         0.45725
C         19.65660        38.49580         0.09769
O          4.12270        27.64313        -2.16881
O          5.98240        24.26990        -2.75214
O          9.00957        12.80444         2.00652
O          8.70491         7.84147         2.49883
O          2.57934        12.39882         0.87164
O         17.78172        29.67545        -2.82071
O         10.25822        10.70735         2.46161
O         19.29859        13.85323        -1.79653
O         12.31494        26.48206        -2.75053
O         14.78859        21.97489         0.13188
O          4.38388        14.30312        -1.94017
O          8.11091        14.07612        -1.22740
O         12.12196        30.74923         2.04238
O          7.87694        20.73797        -2.80783
O         15.66398        25.21374        -0.14755
O         19.93801        29.60261         0.22324
O         17.22396        17.33222        -3.03670
O         17.04650        26.38422        -3.21804
O          9.56514        35.34606         3.48021
O          9.32495        28.66842         1.46474
O         18.52741        23.98132        -3.35694
O          4.23788        30.08115        -1.45407
O         15.88289        29.13869         0.44134
O         16.91873        20.60588        -0.12704
O         14.08507        10.12781        -0.54123
O         12.20266        33.26817         2.66707
O          6.80813        32.96908         3.02878
O         12.90420         6.20343        -0.25046
O         18.22179         6.53226         4.55972
O         19.24990        10.29087         3.63748
O         19.58461        39.62461         0.96803
H         19.50636        39.30074         1.88823
O         10.72627        28.52065        -2.41925
H         10.99680        27.90024        -3.13707
O          2.40791        34.38007        -0.33100
H          1.57396        34.88757        -0.42946
O          7.92787         5.83890        -1.60789
H          7.29444         5.32455        -2.15259
O         16.80549        31.98851        -2.61726
H         17.29984        31.45029        -3.28073
O          9.67267        16.55873        -2.47527
H          8.79518        16.85608        -2.79971
O         15.41403         5.66305        -0.08221
H         14.64903         5.59555        -0.70269
O          0.52102        25.27086        -2.22950
H          0.61692        26.23893        -2.35587
O         15.68558        19.43912        -3.35159
H         15.89893        18.63539        -3.88022
O         19.85935        36.20960        -2.09885
H         19.86319        37.18921        -2.09552
H          1.62503         2.23237        -1.53891
H         -0.54113         3.38269        -1.97998
H         -0.72917         5.83035        -1.82783
H         -0.84142         7.75834        -1.69951
H         -0.96132        10.17458        -1.57941
H         -0.98772        12.14408        -1.74442
H         -1.03252        14.56361        -1.64815
H         -1.05528        16.50996        -1.33194
H         -1.05879        18.94102        -1.19813
H         -1.06396        20.81812        -0.86654
H         -1.03142        23.26723        -0.82103
H         -0.76445        24.88979         0.43947
H         -0.61641        27.20371         1.16288
H         -0.82437        29.12527         1.06693
H         -0.81130        31.47929         1.63206
H         -0.84210        33.39985         1.86702
H         -0.78268        35.79851         2.34472
H          0.48835        37.87348         2.82059
H          3.99892         2.32985        -0.91101
H          2.66192        39.06326         3.03407
H          6.34431         2.39614        -0.14298
H          5.12255        39.06359         2.82578
H          8.76546         2.48378         0.50091
H          7.52816        39.10837         2.49203
H         11.08690         2.56926         1.25726
H          9.99893        39.12162         2.16471
H         13.47205         2.72102         1.99857
H         12.36123        39.18431         1.71535
H         15.82440         2.78491         2.55954
H         14.76651        39.29718         1.17661
H         18.24771         2.84484         2.95815
H         17.17956        39.39717         0.73972
H         20.25913         4.09741         3.62660
H         21.46909         6.34231         3.85173
H         21.29691         8.83160         4.04303
H         21.40520        11.56207         3.09857
H         21.72523        13.21288         1.26125
H         21.94108        14.62777        -0.04074
H         21.89651        16.79588        -1.05574
H         21.93560        18.47685        -1.91106
H         21.98110        20.90757        -2.01564
H         21.96181        22.90070        -1.67321
H         21.95195        25.32678        -1.64765
H         21.94987        27.31621        -2.09758
H         22.00458        29.70829        -1.69264
H         21.88739        31.70388        -1.40229
H         21.81251        34.15802        -1.18467
H         21.67171        35.66411         0.36909
H         21.64938        38.04559         1.02442
H         19.81870        38.90713        -0.93950
