         429
 CSIRO Nanostructure Databank - Neutral Graphene Oxide Data Set
C          1.40486         2.07810         0.88539
C          1.34961         3.33778         0.19478
C          2.57427         1.60885         1.41265
C          2.42371         4.18875         0.14341
C          1.10375         6.04797        -0.83726
C          1.00763         7.34157        -1.33672
C          2.35410         5.51572        -0.47590
C          2.15118         8.14338        -1.37764
C          0.92821        11.19084        -0.72281
C          0.97072        12.29191         0.12468
C          2.11233        10.48422        -0.99275
C          2.21054        12.86077         0.45863
C          1.57586        14.06410         2.61985
C          1.87201        15.09106         3.51565
C          2.26334        14.00294         1.39336
C          2.93233        16.00019         3.28682
C          3.21530        17.06030         4.23062
C          3.78858         2.37359         1.27653
C          3.66386         3.84734         0.94913
C          5.01531         1.80115         1.48967
C          4.91135         4.41170         0.32523
C          3.54024         6.29050        -0.67489
C          3.44187         7.67380        -1.05149
C          4.81358         5.59706        -0.45810
C          4.59008         8.62195        -1.01535
C          3.36453        10.90523        -0.51150
C          3.41528        12.22655         0.02217
C          4.57076         9.98508        -0.27809
C          4.71998        12.89787         0.04770
C          3.17938        15.03318         1.13226
C          3.67874        15.92249         2.08402
C          4.83179        14.26724        -0.00492
C          4.87719        16.82617         1.76303
C          4.26358        17.90184         4.02804
C          5.21597        17.69618         2.96074
C          6.24243         2.47870         1.14319
C          6.14939         3.77001         0.48426
C          7.47329         1.87216         1.31431
C          7.35366         4.38017         0.00710
C          5.98062         6.02857        -1.09538
C          5.80591         8.12950        -1.38936
C          7.28392         5.60812        -0.71804
C          7.13422         8.57066        -0.92515
C          5.89248        10.76056        -0.42215
C          5.93613        12.11913        -0.18743
C          7.17386        10.00346        -0.48714
C          7.19141        12.86262        -0.27579
C          6.07571        15.09251         0.07132
C          6.14297        16.12350         1.20934
C          7.28933        14.21143        -0.00134
C          7.38927        16.69827         1.39183
C          6.44654        18.28386         3.06248
C          7.55803        17.87181         2.24672
C          8.68838         2.48479         0.85825
C          8.61565         3.77019         0.20921
C          9.92552         1.85961         0.98588
C          9.78803         4.41511        -0.26585
C          8.46137         6.36152        -0.99588
C          8.40796         7.84007        -1.41051
C          9.71490         5.74851        -0.79230
C          9.67486         8.52728        -0.81875
C          8.45513        10.70469        -0.70150
C          8.38273        12.15909        -0.79011
C          9.63958        10.03596        -0.97095
C          9.70805        12.91858        -0.87315
C          8.55823        14.89430         0.11600
C          8.60362        16.14672         0.78387
C          9.75333        14.26105        -0.29055
C          9.86703        16.77273         0.96852
C          8.77683        18.50605         2.35942
C          9.96282        18.00006         1.73081
C         11.11398         2.46747         0.48699
C         11.05163         3.76462        -0.14034
C         12.35173         1.82319         0.60457
C         12.22867         4.38131        -0.63963
C         10.94951         6.41595        -1.15385
C         10.93560         7.85247        -1.32398
C         12.15265         5.70026        -1.20353
C         12.09094         8.55332        -1.55518
C         10.87416        10.75509        -1.13365
C         10.94776        12.13485        -0.94098
C         12.09206        10.02678        -1.56524
C         12.19183        12.85629        -0.86552
C         11.00219        14.89354        -0.14495
C         11.05866        16.18109         0.46287
C         12.20693        14.20297        -0.54492
C         12.33907        16.81434         0.66796
C         11.19445        18.60990         1.92709
C         12.40220        18.04650         1.41099
C         13.53930         2.42910         0.13346
C         13.49393         3.72425        -0.49484
C         14.77537         1.75988         0.25239
C         14.70072         4.33780        -0.91485
C         13.36298         6.33752        -1.76435
C         13.35331         7.85848        -1.88857
C         14.68679         5.56892        -1.79054
C         14.65157         8.58535        -1.77944
C         13.41051        10.74120        -1.59922
C         13.50387        12.10909        -0.94054
C         14.68032         9.95713        -1.62265
C         14.63474        12.92783        -1.57856
C         13.43763        15.05094        -0.76189
C         13.51912        16.23345         0.17063
C         14.73051        14.28151        -0.89493
C         14.77681        16.83230         0.41915
C         13.64136        18.66384         1.61930
C         14.83887        18.08059         1.13710
C         15.96410         2.36780        -0.16943
C         15.93308         3.69437        -0.72513
C         17.20133         1.67242        -0.08090
C         17.17765         4.35423        -1.06088
C         15.92455         6.44171        -1.61693
C         15.88843         7.81656        -1.76944
C         17.18421         5.72959        -1.45260
C         17.14819         8.57726        -1.96842
C         15.92833        10.72148        -1.57179
C         15.91255        12.11262        -1.53141
C         17.18308        10.02488        -1.72529
C         17.16544        12.85269        -1.66361
C         15.92069        14.92653        -0.70850
C         15.98477        16.21874        -0.03856
C         17.17095        14.34150        -1.24782
C         17.22577        16.84941         0.17575
C         16.08451        18.71963         1.30411
C         17.27333        18.14507         0.81229
C         18.39481         2.26955        -0.46924
C         18.40179         3.65222        -0.92129
C         19.62365         1.56980        -0.29267
C         19.63849         4.30207        -1.17053
C         18.42784         6.38795        -1.58892
C         18.47651         7.82180        -1.94533
C         19.64528         5.67833        -1.45241
C         19.72293         8.58601        -1.72497
C         18.42283        10.70485        -1.71357
C         18.44106        12.13264        -1.63716
C         19.68897         9.99441        -1.71824
C         19.64760        12.85439        -1.55828
C         18.46293        14.93774        -0.90733
C         18.46380        16.24559        -0.25307
C         19.63409        14.26235        -1.23096
C         19.65643        16.94313        -0.09781
C         18.50376        18.84513         0.90293
C         19.69673        18.29001         0.41230
C         20.85321         2.16018        -0.55867
C         20.90854         3.47556        -1.30056
C         22.04816         1.52718        -0.17080
C         22.16668         4.25080        -0.98715
C         20.92835         6.39673        -1.69354
C         20.95860         7.87987        -1.63367
C         22.21817         5.65532        -1.42073
C         22.18490         8.56442        -1.59373
C         20.92379        10.73776        -1.70318
C         20.89792        12.14358        -1.67737
C         22.19286        10.01663        -1.68100
C         22.14659        12.90392        -1.88665
C         20.95616        14.87343        -0.81699
C         20.88707        16.41706        -0.78990
C         22.13790        14.41868        -1.69053
C         22.15184        17.00633        -0.20514
C         20.91242        19.04560         0.38811
C         22.15038        18.47231         0.04539
C         23.28255         2.21297        -0.15834
C         23.30441         3.62603        -0.52820
C         24.45942         1.58228         0.26728
C         24.54647         4.36266        -0.36974
C         23.43777         6.43462        -1.15395
C         23.43656         7.84510        -1.40519
C         24.59082         5.77489        -0.71348
C         24.67162         8.52189        -1.41266
C         23.40828        10.69810        -1.70856
C         23.47286        12.15931        -1.89599
C         24.68178         9.95657        -1.75286
C         24.72079        12.90273        -1.59048
C         23.44097        14.98231        -1.14715
C         23.43826        16.31693        -0.53847
C         24.67335        14.31965        -1.30187
C         24.66972        17.10016        -0.47729
C         23.37366        19.15415         0.06369
C         24.62865        18.50036        -0.17423
C         25.67288         2.30017         0.42442
C         25.66522         3.71995         0.14320
C         26.86507         1.63179         0.77116
C         26.86118         4.50971         0.49601
C         25.85446         6.46834        -0.69400
C         25.90080         7.84247        -1.15196
C         26.98724         5.83457        -0.15342
C         27.13382         8.55642        -1.16031
C         25.98402        10.72538        -1.67456
C         25.95616        12.20289        -1.47041
C         27.19807         9.97838        -1.26791
C         27.15352        12.87414        -1.26389
C         25.88748        15.04569        -1.06077
C         25.88829        16.42023        -0.68478
C         27.21822        14.37960        -1.29807
C         27.11955        17.14842        -0.46705
C         25.84281        19.22018        -0.13382
C         27.09997        18.56775        -0.25954
C         28.10939         2.29609         0.93316
C         28.09849         3.77756         0.97526
C         29.31411         1.61039         1.06418
C         29.41883         4.48889         0.97516
C         28.30871         6.36397        -0.41312
C         28.39360         7.83670        -1.00387
C         29.50725         5.86316         0.31989
C         29.61967         8.56293        -0.71072
C         28.39579        10.66422        -1.05554
C         28.47746        12.15680        -1.31822
C         29.59197         9.94747        -0.71983
C         29.54066        12.86276        -0.49610
C         28.21140        14.94165        -0.24768
C         28.34176        16.44467        -0.38311
C         29.51059        14.19190        -0.24996
C         29.54775        17.13868        -0.26178
C         28.33008        19.25808        -0.11403
C         29.56894        18.57362        -0.14838
C         30.59665         2.25876         1.18759
C         30.66768         3.71750         1.03538
C         31.75018         1.53237         1.40344
C         31.87828         4.35542         0.83113
C         30.83199         6.40181        -0.02544
C         30.88499         7.79469        -0.50257
C         31.98117         5.73426         0.38326
C         32.14504         8.53935        -0.11005
C         30.75406        10.69226        -0.16470
C         30.88201        12.17349        -0.46002
C         32.00108         9.97154         0.21136
C         31.87353        12.85319         0.47338
C         30.81786        14.91001        -0.21934
C         30.83100        16.42362        -0.30478
C         32.00057        14.23003         0.35514
C         32.09547        17.13632        -0.08150
C         30.82106        19.24652        -0.07151
C         32.08013        18.57084        -0.07253
C         33.04348         2.24233         1.68675
C         33.11465         3.54667         0.91318
C         34.29917         1.44225         1.51771
C         34.44616         4.24336         0.82298
C         33.27992         6.41237         0.44230
C         33.31881         7.83943         0.44395
C         34.46163         5.71294         0.73464
C         34.47615         8.55393         0.80680
C         33.19819        10.72576         0.65238
C         32.90752        12.01080         1.01541
C         34.43102        10.02082         1.23195
C         34.78099        13.08996         1.12548
C         33.31800        14.88506        -0.04384
C         33.31300        16.41682        -0.06528
C         34.60277        14.31256         0.53781
C         34.51395        17.12200        -0.23974
C         33.31421        19.26168        -0.13961
C         34.54218        18.56139        -0.30901
C         35.58795         2.14232         1.83150
C         35.65148         3.57263         1.33073
C         36.84714         1.40003         1.46175
C         36.83167         4.25854         1.39346
C         35.68363         6.41330         0.94006
C         35.69525         7.84306         0.95488
C         36.89574         5.68794         1.16624
C         36.94913         8.54653         1.04031
C         35.77757        10.75482         0.98676
C         35.88938        12.18242         0.86931
C         36.96655        10.00606         0.89543
C         37.05494        12.75094         0.30883
C         35.84678        14.97673         0.12547
C         35.81224        16.40826        -0.24521
C         37.00410        14.11949        -0.24264
C         37.00425        16.99844        -0.91931
C         35.78133        19.22873        -0.47559
C         37.00334        18.55117        -0.92278
C         38.03370         2.04898         1.50629
C         38.07338         3.52934         1.85846
C         39.31086         1.36565         1.31397
C         39.31514         4.15848         1.22280
C         38.12761         6.39280         1.23884
C         38.13802         7.82507         1.14436
C         39.36185         5.66809         1.29027
C         39.45407         8.54681         1.30129
C         38.22801        10.64903         0.62263
C         38.25432        12.01804         0.21614
C         39.45440         9.93000         0.68730
C         39.49578        12.69032        -0.10786
C         38.27311        14.81190        -0.65060
C         38.28606        16.28620        -0.78853
C         39.53325        14.07942        -0.43687
C         39.49176        16.96410        -0.87080
C         38.32247        19.16678        -0.85790
C         39.49480        18.42423        -0.92411
C         40.50130         1.99249         1.41110
C         40.60542         3.47345         1.71874
C         41.79162         4.13897         1.06106
C         40.59874         6.30209         1.04567
C         40.66115         7.71663         0.92840
C         41.77637         5.46208         0.80571
C         41.85423         8.40852         0.62390
C         40.67699        10.55975         0.37550
C         40.71389        11.96489         0.00454
C         41.87496         9.77665         0.40708
C         41.92661        12.66649        -0.21069
C         40.74849        14.77809        -0.57975
C         40.75125        16.23606        -0.78626
C         41.94647        14.02648        -0.47093
C         41.93238        16.95742        -0.84230
C         40.76885        19.09292        -0.95176
C         41.93680        18.37766        -0.93815
O         13.17842         6.99255        -3.06296
O         17.82919         8.16662        -3.21103
O         31.50153        12.35200        -1.72364
O         33.85160         3.51946        -0.33629
O         36.77172        17.71269        -2.13908
O          1.97803         9.42441        -1.89616
O         33.75903        12.61234         1.95268
O         37.38120        14.17058        -1.65312
O         17.06654        13.94478        -2.65941
O         25.46578        10.29315        -2.96956
O          8.85338        12.74691        -2.05096
O         29.36487         5.71039         1.76916
O         28.56906         6.63903        -1.81275
O         30.99633        15.55964        -1.51092
O         12.63648        10.63080        -2.81780
O          5.85442         6.94606        -2.15987
O         22.80131        12.57483        -3.15884
O         22.76955        16.26868         0.87097
O          7.14684         8.88558         0.52157
O         30.91609        10.25116         1.22685
O         31.90515         8.14077        -1.49925
O         21.70429         5.84017        -2.81458
O          3.69616        15.06311        -0.18205
O         36.21132        16.01189         1.13969
O         27.16794         4.37210         1.93709
O         13.22270        15.61947        -2.10552
H         13.32271        14.86754        -2.74086
O         39.59594         8.77702         2.75859
H         40.47169         9.19585         2.90144
O         40.78165         3.64819         3.14132
H         39.89777         3.51758         3.56611
O          9.71377         8.26651         0.61125
H          8.82379         8.49483         0.98078
O         29.00653        12.31665        -2.68187
H         30.01368        12.28722        -2.60404
O         21.99513        14.99263        -3.00934
H         22.48813        14.39852        -3.62514
O          6.09663        15.91334        -1.15141
H          6.26135        15.31720        -1.91309
O         35.64030         2.27079         3.32308
H         34.73496         2.58575         3.58896
O         27.57689        14.69718         1.04321
H         28.16575        15.03460         1.74982
O          4.46852        17.72359         0.69287
H          4.45491        17.19605        -0.13819
O         38.11648         3.64271         3.30455
H         37.30661         3.17500         3.63676
O          8.45956         7.95927        -2.83911
H          7.70233         7.45497        -3.21067
O         21.21554        14.34146         0.50282
H         20.70289        14.85902         1.15809
O         14.30718        13.17369        -2.97113
H         15.13410        13.50094        -3.39741
O         32.97315         2.67106         3.12998
H         32.53248         1.94701         3.62532
O          4.47017         9.64685         1.13999
H          5.30306         9.17565         1.37681
O         27.68988        14.75331        -2.61737
H         28.29000        14.02671        -2.93221
O         34.25706         9.96501         2.67640
H         34.08715        10.88777         2.97570
O         21.00281         3.13638        -2.72281
H         21.18035         3.98555        -3.19757
O         33.43585        14.46870        -1.44225
H         32.77659        13.73264        -1.63376
O         39.18608         3.87139        -0.19874
H         39.99306         4.20341        -0.64703
O         14.82598         5.03246        -3.14073
H         14.49227         5.73039        -3.75217
O          3.49481         4.53465         2.23926
H          2.68059         4.17519         2.65115
O         13.93241        11.87786         0.43433
H         13.17835        11.50575         0.93774
O         20.80053        16.95675        -2.12848
H         20.10733        16.46706        -2.61917
H          0.49278         1.46691         0.93128
H          0.40949         3.58635        -0.31732
H          2.62748         0.60104         1.85046
H          0.18900         5.45267        -0.72146
H          0.04079         7.75789        -1.64649
H         -0.02488        10.81075        -1.11222
H          0.04212        12.77567         0.45681
H          0.82378        13.30440         2.87438
H          1.30822        15.16846         4.45636
H          2.55665        17.18135         5.10238
H          5.07693         0.75743         1.83615
H          4.48396        18.69440         4.75940
H          7.52989         0.88141         1.78982
H          6.64600        18.98539         3.88803
H          9.99434         0.87188         1.46522
H          8.86174        19.40164         2.99314
H         12.40743         0.83302         1.08026
H         11.25277        19.53523         2.51951
H         14.80383         0.74696         0.67996
H         13.68929        19.61960         2.16179
H         17.20901         0.64363         0.30868
H         16.12682        19.69614         1.80883
H         19.59414         0.56805         0.16354
H         18.51084        19.85690         1.33468
H         22.00173         0.50687         0.24040
H         20.87509        20.10266         0.69225
H         24.43786         0.50805         0.50422
H         23.38308        20.23235         0.28375
H         26.84241         0.53476         0.85755
H         25.81841        20.30331         0.05703
H         29.29625         0.50980         1.06970
H         28.31983        20.34725         0.03857
H         31.70290         0.43651         1.49501
H         30.82166        20.34683        -0.05502
H         34.25195         0.36136         1.73453
H         33.31486        20.36090        -0.16253
H         36.79638         0.32192         1.24509
H         35.82082        20.31842        -0.32366
H         39.27455         0.28346         1.11015
H         38.38700        20.25492        -0.70407
H         41.43431         1.41730         1.30414
H         42.70257         3.54979         0.87385
H         42.67575         5.93511         0.38612
H         42.79737         7.85505         0.51903
H         42.83780        10.24799         0.17061
H         42.88737        12.13874        -0.14266
H         42.91997        14.51791        -0.60122
H         42.90245        16.44489        -0.79250
H         40.78704        20.19108        -1.00145
H         42.90280        18.90034        -0.97628
