         404
 CSIRO Nanostructure Databank - Neutral Graphene Oxide Data Set
C          1.35663         3.54846         1.83132
C          0.23460         4.02532         1.22526
C          1.19308         6.26815         0.84020
C          0.15206         5.36891         0.73476
C          1.22565         7.51902         0.06476
C          0.12825         7.84675        -0.75676
C          1.29877         9.79000        -1.57117
C          0.17439         8.96081        -1.58262
C          1.23718        12.06828        -1.95598
C          0.04611        12.78721        -2.13392
C          1.14267        14.78269        -1.28566
C         -0.01783        14.11704        -1.74045
C          1.14003        16.21537        -1.03776
C         -0.06709        16.96530        -1.03601
C          1.14525        19.06096        -0.70000
C         -0.06532        18.33296        -0.86933
C          1.15438        20.50110        -0.58531
C         -0.04845        21.26461        -0.65882
C          1.16963        23.36388        -0.34230
C         -0.04220        22.63263        -0.54336
C          1.16246        24.79222        -0.26486
C         -0.05647        25.56770        -0.13921
C          1.18547        27.65999        -0.59251
C         -0.06180        26.92454        -0.17637
C          1.20431        29.19131        -0.35460
C         -0.04315        30.00857        -0.34552
C          1.11518        32.04534         0.54950
C         -0.06299        31.31247        -0.00100
C          1.22065        33.53197         0.51332
C          0.05228        34.31230         0.53797
C          1.35304        36.35882         0.57513
C          0.10865        35.70066         0.60786
C          1.43787        37.80519         0.63286
C          3.76138         3.93407         2.52425
C          2.42869         4.47089         2.21137
C          3.58317         6.73797         1.66027
C          2.32451         5.91608         1.71878
C          3.55599         8.01904         0.85609
C          2.35371         8.38524         0.07479
C          3.58475        10.45888        -0.70115
C          2.40416         9.57056        -0.71518
C          3.57410        11.83321        -1.03592
C          2.37808        12.62405        -1.35568
C          3.58544        14.75037        -0.94767
C          2.35426        14.04123        -1.14836
C          3.59489        16.16282        -0.82377
C          2.35903        16.90417        -0.82087
C          3.60204        19.03630        -0.46464
C          2.36592        18.33043        -0.65949
C          3.59618        20.43408        -0.30118
C          2.38259        21.19347        -0.39308
C          3.62250        23.34453        -0.03192
C          2.39446        22.62812        -0.26522
C          3.60301        24.73871         0.11484
C          2.40006        25.50063        -0.11310
C          3.59366        27.60392         0.43278
C          2.40479        26.91134        -0.06900
C          3.60065        29.08699         0.62920
C          2.42525        29.87379         0.16254
C          3.69736        31.99174         0.68874
C          2.39328        31.28461         0.66887
C          3.74722        33.40359         0.61166
C          2.49661        34.16797         0.51233
C          3.80422        36.29855         0.25212
C          2.53494        35.58631         0.47599
C          3.88038        37.75445         0.48569
C          2.63055        38.46452         0.62254
C          6.18962         4.07123         2.66051
C          4.92533         4.66133         2.34607
C          6.04989         6.69009         1.52711
C          4.88756         6.04363         1.84900
C          6.04397         8.10623         1.07665
C          4.82629         8.65681         0.47332
C          6.08404        10.55334        -0.46632
C          4.83318         9.87352        -0.22106
C          6.05482        11.91605        -0.90376
C          4.80677        12.58540        -0.98129
C          6.04198        14.72192        -1.03385
C          4.80882        14.01444        -1.00989
C          6.03846        16.13189        -0.88339
C          4.84028        16.85535        -0.74073
C          6.05983        18.97596        -0.53787
C          4.85525        18.29857        -0.54241
C          6.15804        20.38918        -0.17931
C          4.85021        21.14756        -0.00083
C          6.10976        23.26372         0.00092
C          4.88921        22.62752        -0.02673
C          6.18419        24.69653         0.32758
C          4.84035        25.44628         0.47378
C          6.09673        27.57418         0.37238
C          4.89359        26.90415         0.39103
C          6.10886        29.05687         0.38471
C          4.87643        29.81974         0.66734
C          6.16719        31.90177         1.07373
C          4.89398        31.21232         0.71859
C          6.23073        33.37765         0.93915
C          5.01349        34.06460         0.64847
C          6.34380        36.22879         0.61110
C          5.10458        35.49702         0.33492
C          6.35075        37.65072         0.60230
C          5.10459        38.38145         0.54658
C          8.65586         4.11762         2.60327
C          7.40425         4.68866         2.32874
C          8.63690         6.65030         1.23856
C          7.33594         5.95357         1.56000
C          8.63792         8.05802         0.82446
C          7.37164         8.78025         0.71621
C          8.56842        10.57779        -0.48514
C          7.33657         9.97649        -0.13111
C          8.54221        11.83176        -1.32440
C          7.27769        12.62254        -1.10898
C          8.53394        14.73599        -1.37382
C          7.28535        14.01209        -1.17811
C          8.53884        16.13116        -1.38866
C          7.33892        16.81757        -0.86980
C          8.45326        19.07358        -1.33726
C          7.35091        18.29068        -0.69789
C          8.52125        20.52395        -1.02592
C          7.41543        21.12024        -0.45700
C          8.64708        23.33871        -0.41560
C          7.40827        22.55059        -0.10306
C          8.48001        24.80695        -0.75827
C          7.36237        25.49220        -0.01041
C          8.60559        27.61807         0.04256
C          7.34916        26.87085         0.13690
C          8.66449        28.93581         0.43763
C          7.43035        29.74175         0.52001
C          8.76474        31.83934         1.21923
C          7.45024        31.11057         1.12594
C          8.74168        33.33365         1.18314
C          7.46087        34.05515         0.98997
C          8.75820        36.19278         1.00619
C          7.53438        35.49787         0.86817
C          8.78528        37.61660         0.96179
C          7.57283        38.32681         0.78165
C         11.13128         4.17073         2.64069
C          9.89611         4.76964         2.30574
C         11.10482         6.78582         1.51911
C          9.89983         6.06328         1.70028
C         11.09336         8.08701         0.85476
C          9.82873         8.69125         0.49458
C         11.04839        10.64791        -0.44221
C          9.80370         9.99167        -0.13669
C         11.03027        11.99980        -0.93800
C          9.80673        12.64637        -1.19689
C         11.00890        14.78622        -1.51038
C          9.78568        14.04095        -1.41970
C         10.96643        16.21024        -1.70329
C          9.72973        16.86671        -1.64934
C         10.89086        19.11166        -2.26689
C          9.63996        18.33570        -1.87118
C         10.90561        20.55285        -1.76942
C          9.76228        21.23022        -1.30761
C         10.92615        23.41116        -1.36512
C          9.81623        22.65926        -1.04439
C         10.96759        24.84663        -1.07773
C          9.79341        25.53117        -0.67740
C         11.03183        27.61434        -0.50716
C          9.82554        26.90512        -0.35828
C         11.03854        29.07854        -0.33610
C          9.95612        29.66255         0.50431
C         11.20415        31.92698         0.38643
C         10.02750        31.12620         0.82561
C         11.19560        33.36280         0.59126
C         10.00949        34.03879         0.89953
C         11.28305        36.19722         0.97509
C         10.03263        35.45960         1.35401
C         11.26083        37.61537         1.14092
C         10.02418        38.30409         1.14551
C         13.60503         4.25158         2.76120
C         12.35513         4.84734         2.42656
C         13.57519         6.93018         1.80055
C         12.32194         6.18005         1.90284
C         13.55243         8.28579         1.11093
C         12.27253         8.77647         0.57843
C         13.52600        10.69488        -0.42587
C         12.27909        10.03514        -0.11654
C         13.49106        12.00305        -0.92649
C         12.26131        12.71478        -1.08855
C         13.49234        14.83192        -1.59627
C         12.24839        14.10277        -1.41299
C         13.44893        16.27435        -1.81649
C         12.20388        16.96921        -1.85092
C         13.38734        19.11488        -2.16402
C         12.18798        18.37405        -2.00164
C         13.34517        20.58006        -2.19797
C         12.13359        21.25801        -1.97186
C         13.39447        23.47267        -1.95592
C         12.05093        22.76131        -2.15435
C         13.43859        24.89516        -1.50834
C         12.18141        25.56578        -1.14213
C         13.48769        27.66258        -0.88152
C         12.23377        26.95804        -0.87165
C         13.54311        29.16600        -1.05663
C         12.27462        29.86830        -0.57403
C         13.60036        31.92128        -0.15760
C         12.35974        31.25568        -0.04699
C         13.59092        33.38233        -0.07033
C         12.41242        34.10996         0.39182
C         13.75605        36.23235         0.70063
C         12.48082        35.51820         0.65318
C         13.73818        37.59253         1.25158
C         12.50149        38.26487         1.34828
C         16.09055         4.28809         2.79647
C         14.84406         4.89532         2.50771
C         16.04613         6.82694         1.56249
C         14.85100         6.20795         1.93153
C         16.02226         8.04346         0.72009
C         14.79605         8.81084         0.52645
C         16.06371        10.68430        -0.42887
C         14.80159        10.01918        -0.17132
C         16.06480        11.99070        -1.12187
C         14.72554        12.67712        -1.36339
C         15.97237        14.78703        -1.89640
C         14.69126        14.13253        -1.57711
C         15.92771        16.28277        -2.11031
C         14.64081        17.00764        -2.02892
C         15.86018        19.10435        -2.65592
C         14.61861        18.40586        -2.23784
C         15.87251        20.66182        -2.52745
C         14.59745        21.32040        -2.14441
C         15.82542        23.31486        -1.25632
C         14.61894        22.66313        -1.79683
C         15.88315        24.77299        -1.00245
C         14.69540        25.52079        -1.05027
C         15.95035        27.59684        -0.61121
C         14.69895        26.93283        -0.85506
C         15.99050        29.02619        -0.44338
C         14.80625        29.79956        -0.51964
C         16.09450        31.85543        -0.03840
C         14.83141        31.19829        -0.30263
C         16.14797        33.25498         0.24507
C         14.94756        34.08849         0.05849
C         16.25553        36.02803         0.63294
C         14.94779        35.49316         0.50876
C         16.19025        37.90563         1.65989
C         14.84515        38.23735         1.89434
C         18.55741         4.39817         2.96696
C         17.30037         4.96318         2.55588
C         18.52741         6.96019         1.72567
C         17.29574         6.23776         1.90446
C         18.55642         8.25259         1.12558
C         17.35115         8.77143         0.46115
C         18.51373        10.93029        -0.00709
C         17.27845        10.17274         0.03136
C         18.53270        12.23562        -0.57855
C         17.28980        12.82700        -1.07155
C         18.46966        14.96541        -1.36771
C         17.23941        14.13847        -1.47452
C         18.44680        16.43382        -1.71736
C         17.16787        17.07034        -2.04095
C         18.38626        18.92072        -2.94692
C         17.14339        18.36937        -2.53025
C         18.34684        21.02146        -2.88666
C         17.13268        21.40268        -2.32115
C         18.41076        23.39165        -1.41310
C         17.17039        22.59622        -1.47436
C         18.37721        24.69346        -0.84773
C         17.11501        25.40371        -0.68987
C         18.36990        27.49954        -0.19625
C         17.13069        26.82670        -0.47077
C         18.43804        28.88722        -0.15547
C         17.24295        29.67371        -0.21589
C         18.53814        31.71571         0.36945
C         17.28891        31.08596         0.00728
C         18.54599        33.08109         0.78421
C         17.33941        33.84902         0.71733
C         18.54869        35.88559         1.57879
C         17.39351        35.26951         0.97145
C         18.49822        37.16476         2.25958
C         17.31727        37.95394         2.48230
C         19.72297         5.10031         2.82991
C         20.91936         7.18145         2.18857
C         19.73411         6.40982         2.24355
C         20.91516         8.45911         1.65933
C         19.73426         9.02243         1.10485
C         20.91256        11.09376         0.37272
C         19.72245        10.35384         0.48972
C         20.93313        12.34759        -0.23330
C         19.75604        12.93811        -0.70805
C         20.96109        15.14515        -1.26714
C         19.78707        14.22804        -1.51631
C         20.92045        16.47348        -1.57453
C         19.71517        17.13742        -1.98283
C         20.80854        19.30648        -2.71575
C         19.66384        18.43276        -2.56167
C         20.77898        20.69040        -2.66123
C         19.62027        21.51605        -2.48989
C         20.83665        23.53548        -1.61360
C         19.64222        22.81713        -1.84123
C         20.81115        24.76657        -0.96116
C         19.60215        25.35857        -0.57896
C         20.82605        27.39565         0.35094
C         19.53334        26.63306         0.23541
C         20.91544        28.72423         0.22545
C         19.77656        29.59161        -0.25816
C         20.94110        31.64335         0.67854
C         19.75721        30.99041         0.32965
C         20.94491        32.97328         1.10932
C         19.75855        33.71811         1.18190
C         20.86788        35.61394         2.33847
C         19.73754        35.09311         1.68959
C         20.83428        36.87461         2.94567
C         19.66166        37.60955         2.94417
O          2.20962        29.79554        -1.28392
O         15.43359        11.95116        -2.44284
O         10.39519        30.08818         1.83215
O          8.52640        18.72646        -2.76998
O         15.73066        19.96857        -3.80783
O         13.57391         8.19699         2.58297
O          8.37603        22.95267         0.95211
O         16.43327        37.37888         0.36933
O          6.71955         8.99634         2.03645
O          1.96806         5.56909         3.08922
O         13.55569        24.53617        -2.97272
O          3.33234        28.23729         1.79167
O          3.41776         8.01853         2.34044
O          1.31148        10.79619        -2.54138
O         11.21561        29.80016        -1.61686
O          8.86833        32.57876         2.47415
O          6.76986        29.68369        -0.80663
O          7.70093        17.45175         0.44930
O         14.28545        33.96703        -1.23492
O         16.01468        15.34574        -3.26298
O          4.49352        35.85748        -0.96246
O          5.58844        20.63294         1.15799
O         18.41344        15.91240        -0.27341
O          1.55871        31.49105         1.85444
O         16.44947        22.50292        -0.20175
O          5.57770        24.95516         1.63116
O         16.78184         7.84701        -0.52265
O          6.66908        31.29931         2.33334
O          7.92799         5.81033         0.21350
O         18.35398        19.98651        -3.84641
O          8.49605        11.38951        -2.73185
H          9.31750        10.88316        -2.90803
O         10.86452        19.23101        -3.71939
H          9.92672        19.39916        -3.97009
O         19.85224        13.82306        -2.91818
H         20.63505        13.24562        -3.03583
O         13.61854        29.37618        -2.50318
H         12.68807        29.40237        -2.82840
O         19.99917        29.79230        -1.69416
H         19.90743        28.92142        -2.13500
O          1.24792        27.50751        -2.05211
H          1.86889        28.20001        -2.37751
O          8.06941        24.80942        -2.16869
H          8.16296        25.72322        -2.51262
O         19.20410        26.19607         1.59726
H         19.07930        26.99944         2.14481
O         10.08406        35.40608         2.84519
H          9.59257        34.60060         3.12479
O         11.67668        22.92431        -3.55296
H         12.15252        23.72561        -3.87985
H          1.47614         2.47589         2.04177
H         -0.59427         3.34232         0.99102
H         -0.74127         5.61652         0.14663
H         -0.76546         7.21205        -0.78237
H         -0.65375         9.18732        -2.26600
H         -0.81858        12.29654        -2.59880
H         -0.95968        14.66451        -1.87394
H         -1.03112        16.45521        -1.16325
H         -1.02836        18.85988        -0.87548
H         -1.00941        20.75833        -0.81854
H         -0.99357        23.17519        -0.62478
H         -0.99841        25.03951         0.06882
H         -1.00052        27.47830        -0.02941
H         -0.96836        29.53793        -0.71134
H         -1.01083        31.86505        -0.09251
H         -0.92841        33.81682         0.54899
H         -0.81767        36.28839         0.67396
H          0.49850        38.37028         0.72085
H          3.83130         2.88745         2.85776
H          2.65986        39.56033         0.71268
H          6.20036         3.08416         3.14613
H          5.14434        39.47521         0.66332
H          8.69148         3.14342         3.11346
H          7.58654        39.42696         0.78669
H         11.14133         3.16577         3.08670
H         10.02152        39.40146         1.21925
H         13.60944         3.24461         3.20343
H         12.49812        39.31722         1.66941
H         16.11087         3.28809         3.25428
H         14.60573        38.97993         2.67094
H         18.55968         3.40246         3.43378
H         17.29717        38.58829         3.38144
H         20.67295         4.67525         3.18539
H         21.85102         6.76087         2.59370
H         21.85302         9.02968         1.66135
H         21.86146        10.68023         0.73701
H         21.89553        12.86796        -0.33043
H         21.92825        14.70483        -0.98448
H         21.84836        17.06191        -1.51784
H         21.80276        18.83571        -2.68873
H         21.75944        21.18686        -2.58537
H         21.79903        23.11660        -1.93631
H         21.76110        25.28254        -0.76361
H         21.70979        26.82846         0.68295
H         21.89659        29.20053         0.37229
H         21.90451        31.12103         0.60773
H         21.90988        33.43152         1.36238
H         21.78843        35.02089         2.41340
H         21.72716        37.25866         3.45767
H         19.62273        38.57484         3.46908
