         344
 CSIRO Nanostructure Databank - Neutral Graphene Oxide Data Set
C          1.18161         2.04099         0.13010
C          1.16982         3.43214         0.30887
C          2.37282         1.35455        -0.03740
C          2.36261         4.18531         0.33044
C          1.17062         6.36236         0.65951
C          1.18846         7.74773         0.76785
C          2.35222         5.60399         0.53244
C          2.40224         8.49252         0.57821
C          1.19791        10.71025         0.47639
C          1.21041        12.10465         0.48666
C          2.39557         9.96558         0.53140
C          2.40807        12.83160         0.59848
C          1.26575        15.04629         0.21027
C          1.25680        16.40199         0.15250
C          2.43259        14.28708         0.62041
C          2.38492        17.19652         0.65013
C          2.54129        18.60074         0.22500
C          3.61402         2.05484        -0.04665
C          3.61769         3.48760         0.13268
C          4.82069         1.35975        -0.23188
C          4.84068         4.18490         0.07809
C          3.64592         6.33083         0.80033
C          3.59260         7.80138         0.43201
C          4.87736         5.62060         0.29527
C          4.85277         8.51811         0.02173
C          3.62001        10.66243         0.61489
C          3.64413        12.09951         0.70576
C          4.88043         9.96620         0.47510
C          4.85984        12.76595         0.92628
C          3.61155        14.95420         0.93471
C          3.65106        16.42283         1.04077
C          4.84606        14.20055         1.19581
C          4.95493        17.12087         0.92027
C          3.73488        19.23373         0.30948
C          4.97090        18.55351         0.65277
C          6.06270         2.03777        -0.26420
C          6.07162         3.47418        -0.12240
C          7.27970         1.36334        -0.47842
C          7.29945         4.16074        -0.20049
C          6.04224         6.31974         0.15773
C          6.10011         7.77575         0.54832
C          7.26080         5.62845        -0.30275
C          7.35817         8.48987         0.13793
C          6.07860        10.61624         0.60356
C          6.14255        12.00870         1.18438
C          7.30207         9.98270        -0.00914
C          7.39058        12.79020         0.78670
C          6.17719        14.95455         1.26389
C          6.13594        16.42150         1.02244
C          7.41317        14.19514         0.90940
C          7.41562        17.15464         1.02869
C          6.16832        19.24919         0.57672
C          7.43246        18.60032         0.72489
C          8.52557         2.03812        -0.44516
C          8.54488         3.48128        -0.27601
C          9.72267         1.34289        -0.70069
C          9.77466         4.20447        -0.31877
C          8.54719         6.38348        -0.43694
C          8.54184         7.83752        -0.13236
C          9.81962         5.62695        -0.39827
C          9.77635         8.55501        -0.18094
C          8.60687        10.65899         0.29874
C          8.59616        12.08607         0.48925
C          9.79845         9.93866         0.11961
C          9.80232        12.81655         0.27120
C          8.61025        14.90937         0.63057
C          8.69734        16.37452         0.83629
C          9.78207        14.22235         0.29346
C          9.90747        17.11770         0.42253
C          8.64338        19.25640         0.57474
C          9.89907        18.55802         0.47865
C         11.00463         1.92084        -0.40710
C         11.04803         3.49491        -0.23786
C         12.25495         1.21586        -0.87249
C         12.29983         4.20347        -0.54274
C         11.03117         6.32377        -0.45387
C         11.01010         7.80788        -0.52381
C         12.28639         5.62311        -0.56094
C         12.32175         8.53254        -0.46367
C         11.09509        10.63543         0.44060
C         11.07538        12.11493         0.13921
C         12.35324         9.95202        -0.03986
C         12.26269        12.78425         0.09658
C         10.98617        14.95467        -0.25030
C         11.06208        16.42964         0.07941
C         12.28813        14.28935         0.21237
C         12.31710        17.11801        -0.02117
C         11.10321        19.24567         0.28645
C         12.32886        18.55186         0.09887
C         13.53288         2.02100        -0.75915
C         13.51607         3.48268        -0.74983
C         14.70282         1.31663        -0.72980
C         14.73063         4.19794        -0.84756
C         13.53570         6.33527        -0.59341
C         13.58184         7.75694        -0.41570
C         14.75847         5.61433        -0.68008
C         14.79117         8.42546        -0.27585
C         13.53368        10.60299         0.06484
C         13.55238        12.06591         0.43336
C         14.83089         9.84616         0.23370
C         14.78997        12.77863        -0.07299
C         13.50410        14.94220        -0.45761
C         13.55237        16.42960        -0.14983
C         14.77819        14.17456        -0.21605
C         14.79174        17.11049        -0.08219
C         13.55970        19.23576        -0.02225
C         14.80117        18.57344        -0.07713
C         16.00510         1.94783        -0.97893
C         15.99936         3.49888        -1.09896
C         17.26407         1.31562        -0.61993
C         17.26937         4.19267        -0.87036
C         16.01194         6.31816        -0.65719
C         16.02751         7.72872        -0.44983
C         17.25169         5.61463        -0.74914
C         17.25306         8.45679        -0.47813
C         16.05833        10.61136        -0.20080
C         16.00834        12.06559        -0.24162
C         17.22319         9.89710        -0.42376
C         17.19627        12.79873        -0.52786
C         15.97361        14.89277        -0.43586
C         15.99737        16.32455        -0.20297
C         17.19431        14.19353        -0.60022
C         17.26008        16.84930         0.12923
C         15.97499        19.38728        -0.30429
C         17.26885        18.98665         0.04652
C         18.46285         2.01841        -0.66293
C         18.47604         3.46604        -0.78998
C         19.71953         1.33641        -0.49924
C         19.72088         4.16279        -0.67624
C         18.48439         6.32844        -0.72926
C         18.49550         7.75658        -0.64907
C         19.72122         5.61226        -0.70855
C         19.74193         8.44131        -0.69003
C         18.49471        10.61757        -0.79563
C         18.50020        12.07667        -0.31325
C         19.76309         9.89435        -0.29988
C         19.71321        12.76347        -0.88524
C         18.39342        15.01231        -1.04244
C         18.49409        16.33156        -0.31544
C         19.70328        14.24519        -1.06394
C         19.68354        17.08336        -0.36032
C         18.55444        19.38456        -0.37468
C         19.71475        18.54405        -0.28656
C         20.92012         2.00868        -0.49828
C         20.93783         3.44551        -0.55923
C         22.21541         1.22091        -0.47609
C         22.18363         4.14213        -0.42133
C         20.93112         6.32537        -0.67228
C         20.95587         7.74039        -0.73241
C         22.19495         5.63892        -0.24681
C         22.24808         8.44406        -0.78807
C         20.99718        10.65241        -0.74809
C         20.99134        12.00338        -0.81750
C         22.24433         9.90692        -1.16603
C         22.23042        12.78271        -1.19738
C         20.95492        14.98707        -0.85049
C         20.93718        16.35854        -0.58763
C         22.18217        14.16439        -0.51436
C         22.19866        17.05452        -0.48671
C         20.97684        19.17909        -0.35022
C         22.20128        18.47231        -0.37710
C         23.46394         2.03174        -0.18323
C         23.38972         3.48836        -0.20941
C         24.64876         1.39918         0.02823
C         24.58646         4.26786         0.06803
C         23.45098         6.26356        -0.84201
C         23.43042         7.77229        -0.73605
C         24.65760         5.61673        -0.19307
C         24.75952         8.46383        -0.96212
C         23.50254        10.65124        -0.78680
C         23.49207        12.04840        -0.80739
C         24.72135         9.94801        -0.65976
C         24.69318        12.77813        -0.65889
C         23.46880        14.93006        -0.65906
C         23.44186        16.34240        -0.57979
C         24.68672        14.22855        -0.68903
C         24.68419        17.05379        -0.58324
C         23.45304        19.16154        -0.30256
C         24.66248        18.49067        -0.39532
C         25.94332         2.17570         0.09840
C         25.70630         3.53603         0.75476
C         27.09561         1.46053         0.76343
C         26.97801         4.33387         0.87564
C         25.85227         6.39397         0.05982
C         25.92589         7.77029        -0.27697
C         26.98814         5.75539         0.64702
C         27.10886         8.49367        -0.04372
C         25.91777        10.65579        -0.51160
C         25.91466        12.07403        -0.51704
C         27.22881         9.90545        -0.58001
C         27.15844        12.80829        -0.47105
C         25.92892        14.94003        -0.72960
C         25.90614        16.35972        -0.70278
C         27.16117        14.19078        -0.67315
C         27.15816        17.17414        -0.97825
C         25.91386        19.18568        -0.20472
C         27.12019        18.55351        -0.34906
C         28.15662         2.17806         1.24922
C         28.13860         3.64585         1.23711
C         29.37048         1.52454         1.70136
C         29.32777         4.36377         1.55256
C         28.15621         6.50738         0.91755
C         28.23343         7.86996         0.56124
C         29.26167         5.86181         1.70793
C         29.46286         8.62068         0.80220
C         28.37168        10.70058         0.00880
C         28.36712        12.08950        -0.10625
C         29.51086        10.01141         0.54611
C         29.56799        12.85274         0.18363
C         28.45079        14.90980        -0.63893
C         28.46008        16.40876        -0.70122
C         29.62715        14.21259        -0.09612
C         29.54596        17.08523         0.13387
C         28.36516        19.24974        -0.15279
C         29.56317        18.58807        -0.04650
C         30.49160         2.23980         1.98659
C         30.50315         3.68412         1.89843
C         31.70361         4.42545         2.11550
C         30.59854         6.54529         1.57001
C         30.62741         7.93580         1.29115
C         31.75214         5.79502         1.90307
C         31.82767         8.69672         1.49262
C         30.69857        10.76944         0.87069
C         30.72679        12.16503         0.69966
C         31.85504        10.05076         1.32117
C         31.86633        12.97555         1.08619
C         30.96796        14.90979        -0.19417
C         30.89487        16.42347        -0.03291
C         31.97383        14.27278         0.72700
C         32.02971        17.17140        -0.05302
C         30.81739        19.29079         0.02835
C         32.00033        18.61153         0.02804
O         19.61745        13.32081        -2.25219
O         11.63464         8.34694        -1.76152
O         17.29387        17.93560         0.99797
O         11.14298         2.55286         0.88732
O         16.01619         2.64005        -2.27936
O          2.74396        16.97025         2.05178
O          8.25209        16.77575         2.18065
O          7.74004         6.09631        -1.63824
O          5.52146        14.54206         2.50636
O         28.88397        15.68683        -1.89003
O          6.23435        11.85273         2.64549
H          6.06715        12.75050         3.02660
O         12.05977         0.87583        -2.25391
H         12.92719         0.64325        -2.64480
O          4.94135         8.47639        -1.44031
H          4.09207         8.80667        -1.80252
O         13.36924        14.84215        -1.92157
H         14.14278        15.29717        -2.31848
O         28.88041         6.07376         3.13369
H         29.57368         5.64038         3.67689
O         22.28517         5.88242         1.19862
H         21.43417         5.60944         1.60150
O         11.22663        10.57877         1.92401
H         10.37814        10.89692         2.30450
O          6.08319         7.84820         1.99983
H          5.29878         7.32940         2.32144
O         22.26036        12.90628        -2.64184
H         21.34457        13.16430        -2.91839
O         27.53018         9.76067        -2.00925
H         26.77969         9.25194        -2.40495
O         31.44124        14.67468        -1.56288
H         30.72054        14.99754        -2.15466
O         22.11541         0.10806         0.42300
H         22.11458         0.45563         1.33822
O         12.39277        14.57365         1.63137
H         13.02143        13.91985         2.02432
O         22.25851         9.91566        -2.63972
H         22.22815        10.86595        -2.91536
O         18.67856        12.14582         1.13525
H         17.87812        11.75921         1.55232
O         13.62588        12.11358         1.91775
H         12.82035        11.61761         2.22761
O          3.79280         6.32612         2.29252
H          2.97637         6.73271         2.65742
O         14.96506         9.70916         1.69719
H         14.73854        10.59086         2.08489
O         18.58620        10.62170        -2.23828
H         17.78123        11.04668        -2.60019
O         18.10451        15.39461        -2.42576
H         18.40082        14.64075        -2.98668
O         29.12180        16.83632         1.51745
H         29.74556        17.30881         2.10832
O         19.80744         9.83624         1.14896
H         19.83903        10.76312         1.48761
O         25.25505         3.26117         2.11763
H         25.08940         4.12304         2.55452
O          7.11360        10.20260        -1.46791
H          6.41043         9.56400        -1.75801
O         26.35760         2.42795        -1.27911
H         26.49282         1.56257        -1.71781
O         23.48978         5.96905        -2.26054
H         24.20204         6.52804        -2.65088
O         22.03961        13.84497         0.91463
H         22.10574        14.68452         1.41739
O         25.00586         8.38043        -2.42047
H         24.25520         8.85973        -2.84790
O         27.12103        17.44514        -2.41068
H         27.58870        16.69440        -2.84770
O         10.78318        14.85358        -1.68259
H         11.64890        15.00568        -2.13385
H          0.22899         1.49258         0.12988
H          0.20181         3.93106         0.45092
H          2.37314         0.26340        -0.17127
H          0.19271         5.86030         0.64225
H          0.23622         8.28010         0.88918
H          0.23099        10.19503         0.40180
H          0.24930        12.63363         0.43498
H          0.39025        14.49782        -0.16341
H          0.40710        16.93068        -0.30509
H          1.65306        19.13409        -0.14556
H          4.79936         0.26707        -0.35890
H          3.81027        20.29398         0.02443
H          7.26998         0.27391        -0.63075
H          6.15077        20.32633         0.35133
H          9.68675         0.36052        -1.19311
H          8.64555        20.34732         0.42731
H         12.37663         0.26199        -0.27514
H         11.10997        20.34569         0.31259
H         14.67166         0.22076        -0.61424
H         13.55069        20.33634        -0.01351
H         17.25937         0.25983        -0.31006
H         15.82440        20.36125        -0.79490
H         19.71644         0.23956        -0.41540
H         18.69243        20.38800        -0.80668
H         22.34132         0.77577        -1.50406
H         21.01043        20.27883        -0.33116
H         24.68420         0.29770         0.02676
H         23.44765        20.25269        -0.16012
H         27.16846         0.36421         0.67713
H         25.88142        20.23538         0.12679
H         29.37799         0.42659         1.76869
H         28.34628        20.35063        -0.10756
H         31.41638         1.72873         2.29280
H         32.62555         3.88145         2.36634
H         32.73280         6.28873         1.94952
H         32.73894         8.19069         1.83746
H         32.78929        10.59299         1.51783
H         32.65234        12.52817         1.71142
H         32.84816        14.86096         1.04309
H         33.00807        16.67956        -0.15591
H         30.80152        20.39072         0.03166
H         32.95387        19.15672         0.05107
