         324
 CSIRO Nanostructure Databank - Neutral Graphene Oxide Data Set
C          1.20760         1.73840        -0.08306
C          1.19314         2.87402         0.76408
C          2.38739         1.25397        -0.60904
C          2.38283         3.51638         1.07127
C          1.17169         6.64760         1.69461
C          1.07792         7.96602         1.36335
C          2.37184         5.88796         1.46455
C          2.12065         8.61712         0.55707
C          1.13683        10.70177        -0.53198
C          1.24626        11.99603        -0.92077
C          2.09219        10.14795         0.48938
C          2.39106        12.82003        -0.59299
C          1.31964        14.92154        -1.53943
C          1.39885        16.25171        -1.89583
C          2.45476        14.20854        -1.00583
C          2.63390        16.95900        -1.88983
C          2.76190        18.30725        -2.27285
C          3.62922         1.89523        -0.31592
C          3.62147         3.04375         0.54657
C          4.86412         1.40237        -0.78983
C          4.85854         3.68185         0.81287
C          3.52161         6.49005         0.96346
C          3.40994         7.83096         0.36527
C          4.83470         5.88404         1.00054
C          4.70113         8.51420        -0.01078
C          3.48197        10.77259         0.34969
C          3.54970        12.18877        -0.06837
C          4.76513         9.98488         0.24765
C          4.80252        12.83455        -0.01349
C          3.65710        14.90269        -0.85791
C          3.83260        16.20942        -1.49418
C          4.80426        14.29706        -0.17449
C          5.15680        16.96264        -1.36851
C          3.96732        19.00235        -2.16880
C          5.14730        18.40403        -1.65812
C          6.08006         2.07226        -0.51831
C          6.05123         3.33294         0.18543
C          7.33489         1.49263        -0.80504
C          7.24964         4.14619         0.30078
C          5.98782         6.34981         0.39994
C          5.98300         7.74202        -0.15492
C          7.23495         5.57676         0.41722
C          7.32568         8.48522        -0.32768
C          6.04866        10.70009         0.07999
C          6.03712        12.12218         0.13808
C          7.26665         9.96838         0.07051
C          7.28347        12.83837         0.22438
C          6.10653        15.04983        -0.03679
C          6.26795        16.42388        -0.56551
C          7.33161        14.25363         0.15362
C          7.43750        17.13727        -0.35231
C          6.35020        19.08571        -1.48861
C          7.53312        18.48989        -0.94852
C          8.52789         2.08557        -0.32220
C          8.48838         3.46021         0.16825
C          9.74769         1.40811        -0.44745
C          9.69538         4.15458         0.40047
C          8.47109         6.28580         0.42056
C          8.50267         7.74421         0.30346
C          9.70201         5.56762         0.50952
C          9.67689         8.43150         0.44150
C          8.47341        10.65639         0.21810
C          8.51402        12.08902         0.34922
C          9.75401         9.88869         0.00063
C          9.71663        12.78041         0.58773
C          8.52357        14.98110         0.33759
C          8.56792        16.40450         0.25311
C          9.71011        14.23290         0.77480
C          9.77091        17.04989         0.62189
C          8.71726        19.21525        -1.15828
C          9.93507        18.96213        -0.45451
C         10.94941         1.89714         0.19568
C         10.92468         3.38455         0.64605
C         12.25239         1.25067        -0.01128
C         12.23280         4.10489         0.72830
C         10.96575         6.25706         0.69012
C         10.91525         7.72511         0.84928
C         12.18880         5.59011         0.67450
C         12.23542         8.46150         0.88628
C         10.97969        10.57983         0.58040
C         10.98257        12.06357         0.82058
C         12.29149         9.87432         0.31137
C         12.27541        12.80341         0.79347
C         11.05002        14.98242         0.92828
C         11.06378        16.43928         0.66864
C         12.30005        14.21029         0.79509
C         12.28972        17.14120         0.57513
C         11.24216        19.03788        -0.81607
C         12.34024        18.67230         0.17515
C         13.47090         1.87994         0.09034
C         13.52103         3.36782         0.38274
C         14.67175         1.06464         0.15168
C         14.68457         4.24050         0.04586
C         13.45643         6.30337         0.71106
C         13.47830         7.68449         0.78911
C         14.70560         5.60086         0.42952
C         14.75735         8.42639         1.06308
C         13.51854        10.62912         0.76907
C         13.50474        12.09425         0.80612
C         14.68009         9.91911         0.82883
C         14.70918        12.82228         0.95869
C         13.51747        14.93768         0.79794
C         13.50310        16.38450         0.79807
C         14.75213        14.23552         0.93703
C         14.74379        17.00493         1.06017
C         13.64241        19.11421        -0.46260
C         14.82251        18.99925         0.21481
C         15.89112         1.51690        -0.37054
C         15.83573         3.70308        -0.55456
C         17.22498         1.18295        -0.12544
C         17.12376         4.27414        -0.44148
C         15.93321         6.33544         0.27105
C         15.99346         7.74768         0.52221
C         17.11999         5.65446        -0.12106
C         17.21403         8.44864         0.48996
C         15.95308        10.65848         0.74932
C         15.96306        12.08017         1.18722
C         17.23318         9.93328         0.58793
C         17.28024        12.79862         1.21609
C         16.02573        14.94152         0.96490
C         16.01882        16.37092         0.91965
C         17.26646        14.26090         1.01599
C         17.23703        17.11621         0.74626
C         16.16782        19.28068        -0.14336
C         17.27370        18.52796         0.34543
C         18.36114         2.01606        -0.47002
C         18.33626         3.46736        -0.56775
C         19.60944         1.35648        -0.53765
C         19.58814         4.14513        -0.57558
C         18.35856         6.41029        -0.28868
C         18.42696         7.79445         0.19201
C         19.62331         5.63300        -0.54412
C         19.68995         8.45647         0.28562
C         18.49661        10.66099         0.84370
C         18.53456        12.03430         0.98237
C         19.72422         9.86318         0.77370
C         19.77929        12.78796         0.92630
C         18.49104        14.96807         0.93278
C         18.47659        16.39823         0.78745
C         19.75201        14.25225         0.94351
C         19.72861        17.09085         0.68337
C         18.52740        19.17233         0.26292
C         19.74433        18.50931         0.50459
C         20.84032         2.03144        -0.72398
C         20.80893         3.45589        -0.68852
C         22.09014         1.34011        -0.82509
C         22.06579         4.19911        -0.94080
C         20.88439         6.30524        -0.10487
C         20.88412         7.76816         0.10743
C         22.16312         5.57332        -0.37150
C         22.18724         8.47049         0.15544
C         21.00994        10.64177         0.65916
C         20.96351        12.10959         0.67489
C         22.13478         9.95768        -0.04260
C         22.26949        12.78540         0.67625
C         20.95493        14.96885         0.86145
C         20.96865        16.39608         0.73136
C         22.25811        14.28373         0.86968
C         22.20679        17.11404         0.67456
C         20.98106        19.20868         0.54720
C         22.19000        18.53489         0.66809
C         23.33570         1.99509        -0.94586
C         23.35098         3.46070        -1.18239
C         24.56066         1.34177        -0.73442
C         24.69124         4.21043        -1.20050
C         23.44422         6.29777        -0.47004
C         23.46142         7.75379        -0.17001
C         24.61243         5.65061        -0.73166
C         24.57836         8.50964        -0.88043
C         23.37903        10.72378        -0.37472
C         23.45953        12.14951         0.04860
C         24.63998         9.97048        -0.52157
C         24.61847        12.84290        -0.10656
C         23.48110        15.02981         0.54162
C         23.47313        16.40765         0.56025
C         24.77217        14.23834         0.49129
C         24.72579        17.16448         0.44359
C         23.45623        19.33899         0.87653
C         24.73621        18.58428         0.60222
C         25.79204         2.05801        -0.51004
C         25.80542         3.46076        -0.53597
C         27.00599         1.36361        -0.21338
C         26.97275         4.21646         0.03430
C         25.87958         6.37859        -0.63204
C         25.89295         7.79003        -0.68839
C         27.06437         5.66198        -0.38843
C         27.10816         8.50254        -0.57273
C         25.84936        10.63360        -0.46128
C         25.83459        12.12204        -0.58330
C         27.08818         9.92910        -0.53702
C         27.11288        12.86965        -0.77534
C         25.86066        15.05452        -0.17393
C         25.92578        16.49718         0.16637
C         27.07446        14.37729        -0.70681
C         27.16533        17.18917         0.05013
C         25.93395        19.27314         0.53233
C         27.17272        18.60584         0.28216
C         28.24152         2.05260        -0.10630
C         28.27213         3.47337        -0.10235
C         29.48537         1.34410        -0.02689
C         29.49588         4.17995        -0.06042
C         28.30494         6.35069        -0.29473
C         28.34042         7.77080        -0.41184
C         29.53251         5.62236        -0.11591
C         29.59232         8.45069        -0.34193
C         28.34846        10.66333        -0.35884
C         28.39868        12.16782        -0.46104
C         29.62000         9.91183        -0.57684
C         29.68918        12.86932        -0.60909
C         28.37216        15.12557        -0.76491
C         28.38468        16.52315        -0.29009
C         29.69585        14.34012        -0.76073
C         29.61631        17.21243        -0.23772
C         28.39245        19.30491         0.22807
C         29.61158        18.63104         0.01165
C         30.67940         2.02153         0.04020
C         30.71983         3.44770         0.01474
C         31.94730         4.16327         0.07262
C         30.77188         6.30982        -0.05683
C         30.79580         7.75480        -0.14828
C         31.97262         5.54061         0.04847
C         32.01221         8.52175         0.04302
C         30.92026        10.68339        -0.47907
C         30.88712        12.18390        -0.37445
C         32.07425         9.87854        -0.04437
C         32.07939        12.92813        -0.18571
C         30.92002        15.07469        -0.40183
C         30.88039        16.51886        -0.35136
C         32.07593        14.32424        -0.13965
C         32.06603        17.27498        -0.31040
C         30.84554        19.34097         0.02939
C         32.04319        18.66894        -0.14601
O         11.49026         8.24852         2.11957
O         21.57067         5.57740         0.97920
O          4.90654         4.70616         1.76836
O         13.11984         3.60912         1.77839
O         22.52088        13.37155         2.01839
O         10.86026        11.06060         1.92887
O         28.34534        11.49483         0.86881
O          9.69136        18.41876         0.84725
O         14.73884        18.32323         1.46964
O          5.16354        15.00445         1.10273
O          5.13331         8.02428        -1.31432
O         22.54232         3.96122        -2.30901
O         18.96369         6.27617        -1.66195
O         23.15738         8.09551         1.20829
O         26.36672        12.41366        -1.94252
O         30.35875        10.27126        -1.78559
O          2.35178         4.58657         1.99230
O          4.87979        16.13760        -2.56049
O          2.40062         7.94085        -0.70306
O         10.74921         2.32873         1.60186
O         16.60201        12.36651         2.46810
O         15.70667         2.55742        -1.31686
O         10.25314        14.62638         2.09756
O         20.62740        10.03092         1.92531
O          7.67394         8.50469        -1.70496
O         26.03755        14.88794        -1.61334
O         16.53896        10.51575        -0.60662
O          4.22112        10.40185         1.56855
O         22.33873        10.43577        -1.40205
O         29.09009        14.87827        -2.00726
O         12.16422        19.41695         1.39847
H         11.26236        19.21266         1.73551
O         24.21521         8.42324        -2.29654
H         24.79463         9.03437        -2.79865
O         25.09459         4.28492        -2.60668
H         24.26589         4.42031        -3.12381
O         23.42004        20.55417         0.11806
H         23.48837        20.32554        -0.83142
O          1.59897        10.60630         1.77893
H          2.37150        10.64408         2.38677
O          9.90769         9.86025        -1.45382
H          9.08933         9.34333        -1.79023
O         12.50296         9.72635        -1.11410
H         11.61647         9.67217        -1.56195
O         14.91378         8.32634         2.53278
H         14.03229         8.47558         2.94119
O         26.71176         4.27181         1.50121
H         27.50839         4.65954         1.92344
O         25.20794        14.03734         1.86702
H         24.42549        13.68469         2.35910
H          0.25806         1.23696        -0.31648
H          0.24510         3.24136         1.17744
H          2.38375         0.36981        -1.26147
H          0.36169         6.15970         2.25466
H          0.22543         8.57095         1.70327
H          0.28660        10.08691        -0.85870
H          0.47679        12.41986        -1.58191
H          0.34869        14.41283        -1.60487
H          0.49308        16.77762        -2.23200
H          1.86875        18.83937        -2.63218
H          4.88740         0.45704        -1.35109
H          3.99939        20.06526        -2.44890
H          7.38061         0.50450        -1.28624
H          6.41096        20.13591        -1.81261
H          9.79751         0.48185        -1.03885
H          8.67810        20.06729        -1.85445
H         12.23699         0.17520        -0.24536
H         11.51366        19.39298        -1.81974
H         14.60249         0.08224         0.64194
H         13.62577        19.55834        -1.46704
H         17.44524         0.24117         0.39958
H         16.38907        20.16953        -0.75345
H         19.62027         0.25836        -0.46632
H         18.55112        20.24229         0.00805
H         22.08561         0.24502        -0.71221
H         20.98212        20.30698         0.48884
H         24.56171         0.25208        -0.57967
H         23.46693        19.65207         1.95958
H         27.00155         0.26390        -0.19214
H         25.93552        20.36498         0.66530
H         29.47072         0.24459        -0.01874
H         28.40031        20.39362         0.38559
H         31.62668         1.46678         0.10688
H         32.88942         3.59933         0.13424
H         32.94384         6.05205         0.08550
H         32.92200         7.98545         0.34771
H         33.00948        10.38795         0.22976
H         33.02799        12.40009        -0.02031
H         33.01789        14.83823         0.09728
H         33.03748        16.77409        -0.41996
H         30.83485        20.42816         0.19142
H         32.99121        19.22446        -0.13563
