         424
 CSIRO Nanostructure Databank - Neutral Graphene Oxide Data Set
C          1.39451         2.12814        -1.72388
C          1.35703         3.50769        -1.60404
C          2.60412         1.43780        -1.54861
C          2.52331         4.24351        -1.27911
C          1.33588         6.44051        -1.43478
C          1.31436         7.82562        -1.36893
C          2.49648         5.68271        -1.12596
C          2.41150         8.57733        -0.90083
C          1.29711        10.76801        -1.25180
C          1.29362        12.16289        -1.18152
C          2.41444         9.99213        -0.88491
C          2.46312        12.90204        -0.90731
C          1.24004        15.12223        -0.73855
C          1.23830        16.44208        -0.45503
C          2.47460        14.34832        -0.78746
C          2.48966        17.14382         0.00753
C          2.51123        18.61879        -0.30016
C          3.77304         2.12808        -1.24036
C          3.74873         3.54078        -1.08324
C          5.05089         1.33772        -1.12144
C          4.93994         4.25736        -0.69572
C          3.66398         6.35873        -0.68129
C          3.61606         7.84050        -0.35296
C          4.86452         5.65884        -0.48189
C          4.90906         8.52325        -0.86688
C          3.61898        10.71664        -0.31683
C          3.68570        12.18064        -0.69137
C          4.92032         9.99869        -0.58287
C          4.90866        12.83628        -0.69093
C          3.69214        15.02696        -0.70886
C          3.74349        16.44104        -0.47229
C          4.95105        14.28585        -1.09912
C          4.92971        17.14868        -0.54680
C          3.67314        19.28433        -0.45389
C          4.95370        18.58861        -0.43185
C          6.23580         2.13141        -0.63006
C          6.16385         3.54271        -0.47461
C          7.41855         1.44022        -0.38442
C          7.36769         4.25519        -0.12595
C          6.05477         6.40082         0.07860
C          6.15545         7.83467        -0.37621
C          7.36277         5.66683        -0.02219
C          7.34864         8.52673        -0.25134
C          6.12070        10.68107        -0.48135
C          6.13904        12.13179        -0.49022
C          7.37626         9.96890        -0.39262
C          7.36363        12.82508        -0.42246
C          6.21303        14.98234        -0.68462
C          6.24349        16.47432        -0.87979
C          7.36851        14.27974        -0.43894
C          7.34782        17.11026        -0.03705
C          6.15586        19.28095        -0.37926
C          7.41488        18.60241        -0.26437
C          8.61726         2.10528        -0.01828
C          8.58605         3.54523         0.07711
C          9.82283         1.39821         0.18676
C          9.76633         4.26320         0.39009
C          8.56425         6.37997         0.16086
C          8.59091         7.83232         0.04807
C          9.76448         5.66270         0.40638
C          9.80062         8.52552         0.05802
C          8.58434        10.67429        -0.28563
C          8.59970        12.11263        -0.32895
C          9.83014         9.96014        -0.14928
C          9.83646        12.80839        -0.28299
C          8.63904        14.98310        -0.28882
C          8.65839        16.38811        -0.21616
C          9.85821        14.24843        -0.27744
C          9.87507        17.09512        -0.18161
C          8.62516        19.25483        -0.24416
C          9.88254        18.54396        -0.16568
C         11.02825         2.04875         0.52254
C         10.99415         3.51947         0.85851
C         12.24554         1.38331         0.67387
C         12.29592         4.21859         0.53670
C         11.05489         6.38297         0.73607
C         11.05338         7.84561         0.36004
C         12.21035         5.62405        -0.01755
C         12.24582         8.51150         0.32532
C         11.04210        10.65409        -0.19631
C         11.07084        12.08392        -0.24210
C         12.32228         9.87122        -0.32209
C         12.31049        12.78860        -0.20922
C         11.09387        14.94624        -0.24502
C         11.10571        16.37408        -0.20793
C         12.33459        14.21869        -0.23661
C         12.33950        17.08379        -0.18563
C         11.09409        19.21856        -0.13119
C         12.34311        18.51674        -0.13312
C         13.46873         2.09276         0.90258
C         13.45683         3.54926         0.76597
C         14.68393         1.42816         1.03745
C         14.70577         4.33272         1.06507
C         13.55086         6.41696        -0.10672
C         13.52327         7.77399         0.65140
C         14.78734         5.66500         0.37948
C         14.79191         8.52385         0.27431
C         13.56001        10.66141         0.02098
C         13.55464        12.06708        -0.08186
C         14.78565         9.95368         0.13942
C         14.79059        12.78631        -0.04639
C         13.56323        14.92544        -0.24618
C         13.57542        16.36841        -0.24526
C         14.81214        14.21153        -0.17889
C         14.79098        17.07755        -0.27375
C         13.56954        19.20000        -0.09436
C         14.80351        18.50129        -0.16304
C         15.95051         2.11100         1.07098
C         15.98380         3.54328         0.99913
C         17.15895         1.40087         1.11672
C         17.19267         4.23230         1.00446
C         15.96939         6.36015         0.47730
C         15.99899         7.80692         0.27566
C         17.21098         5.68179         0.81748
C         17.24908         8.47867         0.25634
C         16.01074        10.66076         0.07419
C         16.02113        12.07213         0.01178
C         17.29335         9.91495        -0.16531
C         17.26879        12.78829         0.03190
C         16.04385        14.89922        -0.23082
C         16.06462        16.35557        -0.61731
C         17.27546        14.20165        -0.08694
C         17.31270        17.07961        -0.19198
C         16.04232        19.19054        -0.08780
C         17.28624        18.49834        -0.03671
C         18.41229         2.07464         1.15239
C         18.42783         3.51049         1.12566
C         19.64433         1.38747         1.22139
C         19.65115         4.20588         1.25196
C         18.39935         6.38231         0.85944
C         18.45002         7.80353         0.56619
C         19.62157         5.70445         1.42200
C         19.67473         8.52726         0.63993
C         18.50760        10.66046         0.30760
C         18.49592        12.07190         0.24099
C         19.70672         9.95479         0.56590
C         19.71596        12.79234         0.38417
C         18.53005        14.91360        -0.05637
C         18.52863        16.37215        -0.08882
C         19.71706        14.19966         0.17804
C         19.73320        17.09877         0.09120
C         18.49621        19.19611         0.20772
C         19.72885        18.51512         0.25963
C         20.87204         2.08281         1.30127
C         20.87318         3.52141         1.35595
C         22.11572         1.40208         1.29797
C         22.12876         4.24227         1.52066
C         20.91636         6.32191         0.95973
C         20.94956         7.80175         0.71838
C         22.13380         5.63272         1.42078
C         22.19727         8.53815         0.99206
C         20.93410        10.67172         0.76580
C         20.93437        12.09343         0.68673
C         22.17081         9.95607         0.99281
C         22.12475        12.83448         0.96729
C         21.02206        14.88055         0.12898
C         21.01955        16.40408         0.06724
C         22.20242        14.21775         0.71522
C         22.24363        17.10948         0.45483
C         20.97027        19.20967         0.45577
C         22.20310        18.55066         0.54740
C         23.34384         2.09412         1.36314
C         23.37955         3.52252         1.56646
C         24.55950         1.41649         1.13456
C         24.62867         4.18360         1.62486
C         23.32957         6.41769         1.68144
C         23.37607         7.85413         1.34353
C         24.66122         5.64659         1.84597
C         24.60550         8.55684         1.47804
C         23.36982        10.65639         1.28224
C         23.29548        12.10772         1.50055
C         24.59796         9.98327         1.44818
C         24.57293        12.85685         1.79993
C         23.38026        14.97695         0.94591
C         23.41091        16.38526         0.71172
C         24.54216        14.35215         1.61741
C         24.72558        17.10588         0.51873
C         23.43009        19.25762         0.75480
C         24.66389        18.60567         0.75364
C         25.81492         2.05530         1.14397
C         25.86564         3.48075         1.46691
C         26.90839         1.27771         0.63369
C         27.08005         4.25142         1.46685
C         25.88245         6.42628         1.60904
C         25.85340         7.84109         1.58100
C         27.10074         5.70018         1.43228
C         27.08240         8.58858         1.53768
C         25.84452        10.72587         1.58255
C         25.84888        12.11070         1.73070
C         27.09176         9.98080         1.53541
C         27.13023        12.83810         1.86830
C         25.85004        15.12446         1.70106
C         25.90500        16.47219         1.17251
C         27.14833        14.36586         1.84734
C         27.16573        17.23756         1.40773
C         25.89055        19.29700         0.74652
C         27.13625        18.62257         0.80569
C         28.25130         1.58611         0.88847
C         28.35117         3.64060         1.51582
C         29.41533         1.31382         0.16741
C         29.54630         4.25070         1.08079
C         28.32270         6.38955         1.32369
C         28.37817         7.83853         1.74458
C         29.53912         5.69801         1.05147
C         29.59291         8.57793         1.24587
C         28.35617        10.71379         1.49480
C         28.37775        12.08343         1.60414
C         29.60303         9.97366         1.27221
C         29.68253        12.84792         1.72559
C         28.36412        15.04690         1.32037
C         28.38104        16.40076         1.05347
C         29.56401        14.22263         1.06791
C         29.59397        17.09519         0.67656
C         28.33263        19.24132         0.48294
C         29.57582        18.52278         0.46496
C         30.62455         2.08380         0.28734
C         30.69184         3.48189         0.69338
C         31.78533         1.47839        -0.23625
C         31.91717         4.20029         0.47008
C         30.73832         6.40413         0.83173
C         30.77087         7.85157         0.90050
C         31.95756         5.66456         0.63098
C         31.96432         8.54672         0.62795
C         30.82914        10.68228         1.04836
C         30.88797        12.10222         1.18271
C         32.01794         9.95780         0.73042
C         32.07850        12.78103         0.93319
C         30.83482        14.93536         0.71756
C         30.81672        16.40387         0.59831
C         32.13770        14.27835         1.12879
C         32.03675        17.08176         0.35057
C         30.77110        19.18821         0.18315
C         32.01082        18.49745         0.11861
C         33.00663         2.16787        -0.38914
C         33.04131         3.55956        -0.05652
C         34.16628         1.50981        -0.87320
C         34.26295         4.37466        -0.41457
C         33.15625         6.34578         0.53341
C         33.16614         7.79020         0.13087
C         34.42520         5.52662         0.59303
C         34.47937         8.51304         0.33201
C         33.26350        10.65936         0.54733
C         33.28052        12.07061         0.61263
C         34.49487         9.93206         0.36894
C         34.52556        12.77913         0.42697
C         33.33292        14.94879         0.48819
C         33.27745        16.35742         0.24743
C         34.52163        14.23544         0.31915
C         34.45707        17.05179        -0.12230
C         33.20406        19.17523        -0.20527
C         34.42409        18.47819        -0.33850
C         35.41848         2.17244        -0.98085
C         35.51638         3.56023        -0.63692
C         36.58469         1.49281        -1.40739
C         36.74220         4.21289        -0.72006
C         35.70566         6.32825         0.34587
C         35.68205         7.80379         0.24183
C         36.87893         5.61658        -0.27221
C         36.91845         8.49062         0.03171
C         35.74076        10.63419         0.28838
C         35.72131        12.07022         0.30341
C         36.95397         9.90722         0.08054
C         36.99825        12.81891         0.24700
C         35.72740        14.93516        -0.03601
C         35.68880        16.34529        -0.25286
C         36.96801        14.25103        -0.11183
C         36.88610        17.04099        -0.58783
C         35.61431        19.15524        -0.67677
C         36.84197        18.46689        -0.80454
C         37.80070         2.17513        -1.58984
C         37.88607         3.56250        -1.26366
C         38.96192         1.51970        -2.13115
C         39.06376         4.31459        -1.59618
C         38.01128         6.41662        -0.76200
C         38.07789         7.75387        -0.42417
C         39.11186         5.73131        -1.42227
C         39.41762         8.42526        -0.57437
C         38.23327        10.59376        -0.11725
C         38.28834        12.06802         0.06404
C         39.37892         9.92482        -0.43248
C         39.46707        12.80070        -0.45769
C         38.15518        14.92640        -0.46274
C         38.11308        16.33928        -0.71002
C         39.40810        14.21241        -0.62864
C         39.30570        17.05053        -1.06234
C         38.02500        19.15323        -1.13918
C         39.25228        18.46841        -1.27220
C         40.09479         2.22663        -2.42316
C         40.15987         3.64784        -2.21508
C         41.26786         4.40605        -2.65161
C         40.19998         6.47194        -1.92850
C         40.08201         7.99449        -1.89302
C         41.26902         5.79351        -2.54080
C         41.37152         8.74625        -2.10748
C         40.73705        10.59659        -0.49853
C         40.65644        12.09751        -0.70593
C         41.62326         9.93021        -1.53876
C         41.81280        12.81568        -1.05335
C         40.58244        14.91811        -1.01653
C         40.54455        16.36423        -1.20855
C         41.77669        14.19477        -1.20235
C         41.69352        17.10095        -1.54578
C         40.44010        19.17080        -1.61282
C         41.63794        18.48912        -1.74231
O         30.06054        14.24620        -0.31554
O         21.02660         6.79919        -0.40760
O         23.90896         6.11887         3.00212
O         37.87853        12.51756         1.40223
O         21.24745        15.57005        -1.14031
O         24.92461        15.03224         2.85906
O         23.67069        12.46083         2.88940
O         27.26759        13.66870         3.11967
O         28.44437         2.36444         2.05488
O         36.77405         5.80815         1.20958
O         24.97170        16.96521        -0.94387
H         24.16153        17.27761        -1.40348
O          2.48321        17.04029         1.47555
H          2.53818        16.08658         1.69807
O         33.01225         7.72769        -1.34809
H         33.38549         6.86203        -1.65064
O         14.54732         4.70230         2.49753
H         14.24874         5.64527         2.53171
O         28.55468         7.78470         3.21188
H         27.75298         7.36247         3.58891
O         11.76519         5.44754        -1.39411
H         10.97104         4.87019        -1.39464
O          6.94693        16.90971         1.35124
H          7.61432        17.34196         1.92386
O         19.59568         5.96274         2.86627
H         18.80248         5.52032         3.23647
O          6.53329        16.70731        -2.28298
H          6.00287        16.05306        -2.79536
O          4.97353        14.31620        -2.58788
H          4.15144        13.87476        -2.89429
O          4.84747         0.17593        -0.29842
H          4.59628         0.47984         0.59770
O         11.26728         6.28743         2.17011
H         11.17441         5.33122         2.43629
O          3.45911        10.70239         1.14638
H          3.42162         9.74424         1.40951
O         12.47435         9.55633        -1.76115
H         13.05468         8.75758        -1.82540
O         34.48713         4.96219         1.91703
H         35.44135         4.93309         2.16855
O         40.26885         7.90339         0.50079
H         39.71018         7.79908         1.30034
O         41.39213        10.38689         0.78469
H         41.33470         9.41576         0.96007
O         13.61599         7.52995         2.07888
H         12.71957         7.22790         2.38959
O          3.56691         7.97777         1.09606
H          4.30237         7.42416         1.47638
O         29.92341        13.04481         3.14319
H         29.06878        13.34289         3.54335
O         13.78540         6.81360        -1.47840
H         13.35321         6.14582        -2.05853
O         17.42398         9.87234        -1.65082
H         17.46741        10.80246        -1.96175
O         27.25288        17.45389         2.86339
H         28.14273        17.81915         3.05429
O         33.98432         5.02639        -1.70806
H         33.78380         4.32151        -2.36045
O          5.79379         6.48386         1.55400
H          6.57449         6.92168         1.95873
O          4.85222         8.35302        -2.32695
H          5.65989         8.76234        -2.70378
O         10.91356         3.58107         2.34477
H         10.11933         3.07101         2.61391
O         39.17105         8.36804        -2.96206
H         39.58039         8.11115        -3.81410
O         32.25979        14.54986         2.55874
H         32.95374        13.96310         2.92514
O         16.11821        16.35578        -2.10556
H         15.28920        15.93674        -2.42218
H          0.47752         1.57239        -1.96395
H          0.39923         4.02457        -1.74803
H          2.63695         0.34414        -1.65059
H          0.43530         5.93025        -1.80121
H          0.40584         8.34287        -1.70790
H          0.37143        10.27180        -1.57670
H          0.35615        12.68957        -1.40742
H          0.29170        14.61676        -0.97138
H          0.29025        17.00049        -0.42952
H          1.55286        19.16001        -0.30333
H          5.30700         0.94294        -2.14550
H          3.67905        20.37535        -0.60119
H          7.42608         0.34596        -0.49432
H          6.14735        20.38228        -0.38947
H          9.82653         0.30654         0.04776
H          8.65669        20.35170        -0.33885
H         12.28326         0.29007         0.55042
H         11.10572        20.31875        -0.12187
H         14.68968         0.32777         1.06880
H         13.57710        20.29810        -0.02615
H         17.14127         0.30114         1.14731
H         16.03820        20.28595         0.01351
H         19.65072         0.28724         1.21499
H         18.47182        20.28779         0.33843
H         22.12717         0.30743         1.18592
H         20.94401        20.30544         0.55068
H         24.52128         0.34246         0.89838
H         23.39483        20.34586         0.91473
H         26.66235         0.42468        -0.01647
H         25.88667        20.38790         0.59020
H         29.40288         0.51015        -0.58405
H         28.33356        20.29414         0.16154
H         31.73548         0.42302        -0.54242
H         30.75467        20.27210        -0.00392
H         34.10456         0.44158        -1.12710
H         33.18100        20.26175        -0.37512
H         36.52190         0.42287        -1.65566
H         35.58803        20.24280        -0.84074
H         38.91254         0.43962        -2.33239
H         37.99236        20.24078        -1.30196
H         40.96730         1.72004        -2.86132
H         42.12067         3.89406        -3.12023
H         42.13055         6.35447        -2.92916
H         42.09676         8.34000        -2.83121
H         42.57987        10.42481        -1.76715
H         42.77017        12.29419        -1.18348
H         42.70514        14.71527        -1.47058
H         42.66374        16.59990        -1.65873
H         40.39498        20.25791        -1.76970
H         42.55625        19.03376        -2.00278
