         470
 CSIRO Nanostructure Databank - Neutral Graphene Oxide Data Set
C         37.46133        49.96083        -0.35710
C         37.26054        49.90260        -1.73641
C         39.19942        51.31654        -2.07357
C         38.15037        50.55808        -2.59281
C         40.07673        48.77337         2.11327
C         40.00104        50.09844         1.78265
C         38.53667        50.69941         0.15060
C         40.44997        52.36857        -0.18960
C         39.41342        51.42463        -0.68378
C         40.57121        53.56806        -0.98850
C         42.52660        48.75561         1.83757
C         41.33911        48.09673         2.04661
C         42.55408        50.24087         1.95923
C         41.18668        50.95892         1.73965
C         42.35211        53.19424         1.30837
C         41.24132        52.20488         0.93477
C         42.37058        54.43767         0.40590
C         41.47180        54.55345        -0.69099
C         44.71922        45.88851         0.47945
C         43.59526        46.58764         0.74117
C         45.02549        48.32580         1.68790
C         43.67150        48.05552         1.09856
C         45.03633        50.51145         1.85919
C         43.75898        51.08534         1.65526
C         44.97809        53.09089         1.14177
C         43.71069        52.44611         1.34361
C         45.11045        54.50122         1.17540
C         43.28572        55.45459         0.68010
C         44.89384        57.21157        -0.00850
C         43.63515        56.63116        -0.05521
C         47.43290        44.37801        -0.17426
C         47.37517        45.68942         0.50400
C         46.08733        46.41448         0.74950
C         47.47514        48.61746         1.31209
C         46.16939        47.84443         1.15058
C         47.33721        50.08669         0.83014
C         46.21168        50.97907         1.26908
C         47.39301        53.02499         0.52071
C         46.17967        52.34612         0.88982
C         47.41862        54.44397         0.42032
C         46.21730        55.19157         0.66312
C         47.38071        57.29028         0.18517
C         46.13862        56.59497         0.36026
C         47.41973        58.71228         0.12077
C         49.88392        44.37895        -0.03028
C         48.61997        43.76663        -0.39669
C         49.86009        45.78699         0.32005
C         48.63461        46.48688         0.49326
C         49.83733        48.60079         0.39376
C         48.63950        47.88812         0.64447
C         49.79570        50.00871        -0.15415
C         48.52765        50.79354         0.21334
C         49.78750        52.97513         0.04322
C         48.58976        52.28590         0.27714
C         49.84485        54.40526        -0.00025
C         48.63285        55.13862         0.16063
C         49.85426        57.27794         0.01755
C         48.61989        56.57300         0.12610
C         49.86014        58.70451         0.03613
C         48.61247        59.39157         0.07063
C         52.40071        41.66127        -0.60059
C         51.20828        42.34370        -0.60887
C         52.33200        44.28626         0.43430
C         51.09747        43.67758        -0.10828
C         52.30907        45.78072         0.73555
C         51.06954        46.50908         0.45989
C         52.33344        48.65620         0.34231
C         51.07455        47.91883         0.37829
C         52.27650        50.10110         0.19345
C         51.08538        50.76297         0.04524
C         52.27940        52.96391        -0.51543
C         51.01372        52.21379        -0.27788
C         52.32220        54.43821        -0.36638
C         51.08628        55.12343        -0.17452
C         52.32098        57.26698        -0.17447
C         51.08879        56.55356        -0.10618
C         52.33304        58.69399        -0.06943
C         51.10480        59.41467         0.03237
C         52.34988        61.50813         0.18281
C         51.15460        60.83236         0.15377
C         54.91073        40.10213        -0.41846
C         54.85978        41.50424        -0.14370
C         53.63593        42.25523        -0.17954
C         54.85103        44.30488         0.45177
C         53.64011        43.61948         0.22886
C         54.88218        45.77074         0.73181
C         53.58869        46.55601         0.81765
C         54.82059        48.70346         0.31499
C         53.56465        48.00277         0.46946
C         54.83606        50.10245         0.17487
C         53.55757        50.89352         0.37794
C         54.83003        52.95058        -0.49071
C         53.55864        52.18587        -0.42853
C         54.81731        54.42763        -0.55501
C         53.54839        55.12717        -0.47218
C         54.77316        57.28003        -0.43906
C         53.55774        56.56672        -0.36513
C         54.80491        58.68427        -0.23339
C         53.57459        59.39948        -0.05876
C         54.84292        61.51309         0.13606
C         53.59276        60.81903         0.07552
C         54.89562        62.95452         0.07498
C         57.31256        39.97453         0.00440
C         56.09191        39.37589        -0.36684
C         57.28391        41.38615         0.40595
C         56.05927        42.17688         0.21170
C         57.35385        44.28180         0.42950
C         56.08186        43.58305         0.37543
C         57.34002        45.75704         0.23051
C         56.09664        46.52428         0.39595
C         57.29418        48.66068         0.23335
C         56.08438        47.94325         0.30466
C         57.32177        50.08709        -0.23593
C         56.04800        50.84570         0.01161
C         57.29344        52.98583        -0.24456
C         56.07458        52.24065        -0.15239
C         57.28773        54.39304        -0.48282
C         56.03350        55.10065        -0.60383
C         57.29847        57.31706        -0.61556
C         56.01501        56.58128        -0.92876
C         57.30600        58.66280        -0.32216
C         56.05075        59.38663        -0.14917
C         57.32402        61.46223         0.41966
C         56.05337        60.77259         0.11808
C         57.33526        63.01490         0.43142
C         56.05720        63.65869         0.10405
C         59.78558        37.15230         0.28950
C         58.61593        37.84685         0.21333
C         59.78021        40.00654        -0.02536
C         58.56338        39.27823         0.02995
C         59.84909        41.41829         0.13744
C         58.62029        42.13535         0.55477
C         59.86383        44.28705         0.59560
C         58.55767        43.60701         0.45948
C         59.90721        45.78740         0.67672
C         58.63817        46.50825         0.33446
C         59.86959        48.73931         0.42335
C         58.57407        47.98588         0.52002
C         59.82283        50.17178         0.03343
C         58.57199        50.88210         0.07942
C         59.76894        53.04579        -0.06477
C         58.52732        52.26898        -0.05643
C         59.74908        54.46799        -0.44216
C         58.53726        55.11813        -0.59106
C         59.82577        57.30179        -0.57422
C         58.56103        56.58461        -1.00043
C         59.81933        58.68944        -0.35385
C         58.56993        59.40441        -0.20138
C         59.85753        61.46150         0.35508
C         58.58317        60.74245         0.16540
C         59.88055        63.00995         0.43251
C         58.61591        63.73364         0.21521
C         59.90642        65.79355        -0.13352
C         58.67782        65.06660        -0.12498
C         62.39313        35.69460         0.31281
C         62.36437        37.08585         0.10189
C         61.05399        37.75461        -0.14135
C         62.29423        40.02012        -0.30528
C         61.02641        39.28113        -0.29928
C         62.26561        41.39753        -0.42041
C         61.04723        42.10876        -0.13360
C         62.34662        44.31278        -0.09546
C         61.14179        43.53300         0.28203
C         62.40035        45.73394         0.00938
C         61.21828        46.50991         0.50497
C         62.15925        48.56708        -0.66883
C         61.24562        48.04503         0.41273
C         62.13999        50.04462        -0.89463
C         60.96387        50.80107        -0.43650
C         62.20553        52.99910        -0.90243
C         61.03645        52.25204        -0.38358
C         62.22125        54.44660        -0.66586
C         61.03185        55.15092        -0.58179
C         62.29132        57.29770        -0.52835
C         61.04826        56.59686        -0.57880
C         62.30272        58.68318        -0.45195
C         61.06958        59.40720        -0.29154
C         62.27701        61.59979        -0.50888
C         61.08871        60.78950        -0.05530
C         62.32616        63.03266        -0.03886
C         61.15855        63.72329         0.14928
C         62.39721        65.89537         0.17318
C         61.12864        65.17818         0.06225
C         62.45275        67.34150         0.13552
C         64.81058        35.73580         0.54406
C         63.58600        35.03544         0.56492
C         64.81334        37.12114         0.19993
C         63.58754        37.80483         0.03978
C         64.81317        39.96438        -0.55321
C         63.57601        39.33014         0.10603
C         64.81969        41.48957        -0.57870
C         63.47130        42.12898        -0.99437
C         64.40854        44.40696        -1.32006
C         63.38608        43.63390        -0.76145
C         64.63305        45.75776        -1.04270
C         63.53753        46.43514        -0.46704
C         64.71881        48.60263        -1.08509
C         63.44696        47.85717        -0.88250
C         64.71847        50.00949        -0.90961
C         63.46288        50.75926        -1.06926
C         64.71076        52.93092        -0.51101
C         63.50871        52.25573        -1.03377
C         64.74688        54.28868        -0.44904
C         63.54474        55.09234        -0.80782
C         64.82386        57.22469        -0.15314
C         63.58632        56.58249        -0.66693
C         64.80690        58.61281         0.07915
C         63.60763        59.37897        -0.36641
C         64.69346        61.54704         0.44344
C         63.60647        60.86390        -0.32532
C         64.81926        63.00362         0.31227
C         63.63568        63.75505        -0.26816
C         64.82522        65.81307         0.63339
C         63.57935        65.17395         0.23326
C         64.87501        67.36994         0.56346
C         63.62748        68.02784         0.16036
C         67.45184        33.02254         1.22053
C         66.24150        33.72262         1.15759
C         67.11812        36.03400         1.24445
C         66.05157        35.11332         0.97158
C         67.29607        37.27302         0.70263
C         66.14968        37.80989        -0.12962
C         67.29663        40.09266         0.35407
C         66.04628        39.31583         0.06736
C         67.25818        41.55971         0.05967
C         66.04607        42.12557        -0.60220
C         67.32012        44.27490        -1.08420
C         66.26864        43.39796        -1.25352
C         67.22648        45.69745        -1.53613
C         65.89235        46.45694        -1.44959
C         67.18616        48.65859        -1.13419
C         65.93923        47.92716        -1.20003
C         67.16453        50.08441        -0.85164
C         65.91989        50.70572        -0.65456
C         67.03652        52.67564         0.55330
C         65.82044        52.06025        -0.05101
C         67.21009        54.13455         0.18763
C         65.88697        54.94802         0.28168
C         67.13352        57.13199         0.58525
C         65.98377        56.46198         0.13919
C         67.15944        58.55251         0.74318
C         65.95254        59.28494         0.55100
C         67.12984        61.47140         1.23815
C         65.87085        60.72557         0.90065
C         67.22060        62.91034         0.94763
C         66.03161        63.64568         0.59746
C         67.31366        65.76658         0.78247
C         66.09897        65.08516         0.60310
C         67.37460        67.21625         0.66398
C         66.20858        67.95618         0.37530
C         67.48443        69.98606         0.00803
C         66.30947        69.31325        -0.07296
C         70.01525        31.42745         0.85400
C         69.90107        32.80276         0.57289
C         68.75222        33.57294         0.98007
C         69.95769        35.77088         0.57380
C         68.96440        34.95535         1.18809
C         69.85195        37.15461         0.43656
C         68.63315        37.98309         0.91701
C         69.77507        40.12283         0.17315
C         68.61720        39.41895         0.40272
C         69.81702        41.57387        -0.01020
C         68.53979        42.32903        -0.03173
C         69.74210        44.38123        -0.70922
C         68.56311        43.70898        -0.59372
C         69.76725        45.81919        -1.07395
C         68.48638        46.52589        -1.44767
C         69.71068        48.75866        -1.25488
C         68.41361        47.98147        -1.22348
C         69.59678        50.14346        -0.62652
C         68.40533        50.83078        -0.61505
C         69.61624        52.82045         0.43959
C         68.33388        52.26071        -0.11312
C         69.63295        54.17908         0.82172
C         68.33493        54.86843         0.87878
C         69.61988        57.06179         1.12109
C         68.32585        56.36539         1.01005
C         69.61941        58.49326         1.12679
C         68.39214        59.21134         1.06862
C         69.69155        61.38904         1.18336
C         68.42108        60.65982         1.33672
C         69.69536        62.80665         1.11647
C         68.46725        63.57441         1.02544
C         69.78359        65.68783         0.94592
C         68.52980        65.00819         0.91505
C         69.82904        67.13982         0.94988
C         68.65321        67.88684         0.77373
C         70.04855        70.08175         0.38889
C         68.67205        69.35814         0.59269
C         70.12854        71.20756        -0.55125
C         72.34026        31.40346         0.10829
C         71.19947        30.73612         0.63211
C         72.28411        32.72877        -0.22782
C         71.04701        33.49439        -0.05204
C         72.34961        35.78834        -0.17213
C         71.07941        35.03210        -0.09136
C         72.32434        37.12965        -0.11477
C         71.03655        37.87348        -0.09505
C         72.29414        40.15981        -0.10818
C         71.03614        39.38652        -0.12883
C         72.25963        41.51127        -0.16384
C         71.00827        42.23987        -0.19172
C         72.01985        44.55963         0.23647
C         71.08397        43.70191        -0.59046
C         71.96196        45.90769         0.15711
C         70.89964        46.61709        -0.54568
C         72.14337        48.74245        -0.58839
C         70.90936        47.97998        -0.71011
C         72.09869        50.06041        -0.31911
C         70.79291        50.62257         0.17807
C         71.99453        52.74992         0.87521
C         70.81826        52.10341         0.44492
C         72.01217        54.10581         1.17780
C         70.82389        54.86681         1.13571
C         72.02236        57.05329         1.44694
C         70.81207        56.32902         1.27155
C         72.04310        58.43509         1.43097
C         70.86265        59.19569         1.25281
C         72.12372        61.34825         1.08311
C         70.89467        60.63959         1.16921
C         72.14492        62.72039         1.02156
C         70.94698        63.49263         1.02971
C         72.25338        65.59535         0.86322
C         70.98556        64.92005         0.95162
C         72.34196        66.94476         0.90220
C         71.15418        67.78775         1.04190
C         72.51200        69.72912        -0.06684
C         71.29452        69.30027         0.63247
C         72.47354        70.71268        -1.00290
C         71.26559        71.45932        -1.25008
O         62.65235        50.33970        -2.21901
O         69.47954        46.13055        -2.49483
O         41.83901        50.87403         3.04891
O         59.95802        62.19775         1.63857
O         66.34574        39.72197         1.41976
O         51.47236        52.51220        -1.65920
O         64.01018        60.20354        -1.56609
O         60.73254        52.73461         0.98246
O         66.13237        52.03393         1.44101
O         58.14141        46.13488        -0.98550
O         69.27082        70.24472         1.59736
O         67.67110        61.07621         2.53868
O         62.34889        47.84830        -1.90962
O         67.90116        53.53413        -1.07739
O         70.68578        34.29807        -1.27651
O         57.29181        62.22941         1.66243
O         54.25544        52.22469        -1.69156
O         57.93699        41.59230         1.71640
O         67.74258        42.33129         1.21535
O         60.67666        43.69178         1.66058
O         68.12594        35.55782         2.12857
O         71.39931        68.86387         2.00547
O         54.32924        46.22894         2.03445
O         52.15728        44.79963         1.80225
O         62.81758        52.77400        -2.21311
O         63.72396        55.95186        -1.99277
O         64.72584        66.65567         1.82432
O         64.77001        61.03942         1.82966
O         47.42775        50.26484        -0.62269
O         70.83869        38.59317        -1.37151
O         46.73925        45.61622         1.84615
O         45.08807        49.35226         2.62253
O         59.22424        48.51263         1.73149
O         60.95411        38.36511        -1.47059
O         68.03830        55.46315         2.18281
O         65.28534        43.75328        -2.19379
O         38.74128        50.69211         1.54253
O         60.67238        46.19650         1.83614
O         66.45206        46.00898        -2.72613
O         44.10928        55.24298         1.81002
O         65.51413        54.77824         1.68502
H         66.27578        55.08821         2.24009
O         68.87121        38.12827         2.35036
H         68.62066        37.27304         2.77369
O         49.73949        49.79883        -1.60123
H         48.78588        49.71565        -1.83623
O         47.83230        48.70295         2.71111
H         47.76863        47.80172         3.09355
O         63.84740        63.83808        -1.72542
H         63.26400        63.15326        -2.14210
O         70.00248        48.98102        -2.68059
H         69.91535        48.10036        -3.11608
O         63.34867        41.89027        -2.43797
H         64.01183        42.47779        -2.87588
O         61.90436        48.50257         1.62057
H         61.34548        48.19651         2.37230
O         58.61543        56.59828        -2.46618
H         57.70509        56.37316        -2.78588
O         53.55861        51.34698         1.77139
H         53.63142        50.55615         2.34735
O         66.44825        37.52449        -1.51837
H         65.79254        38.01341        -2.07026
O         43.71027        48.76521        -0.19876
H         42.95585        48.44252        -0.73621
O         55.90220        56.62029        -2.41920
H         55.68564        57.54449        -2.66941
O         71.64808        43.67556        -1.94275
H         71.44879        44.53696        -2.36913
O         63.67930        39.64592         1.52443
H         62.98104        39.16057         2.01053
O         64.79144        39.60782        -1.96133
H         64.11196        40.18354        -2.40240
O         62.07046        61.73627        -1.96797
H         62.57469        60.98432        -2.37586
O         42.11612        53.62644         2.66938
H         41.19156        53.94136         2.73517
O         70.55653        49.99840         1.49588
H         71.26096        50.31162         2.10216
O         57.39832        49.94691        -1.72157
H         56.48971        49.78060        -2.05467
H         36.79007        49.43575         0.33448
H         36.41951        49.32776        -2.14731
H         39.88123        51.82563        -2.76907
H         38.01521        50.49142        -3.68071
H         39.15892        48.18107         2.21890
H         39.87842        53.71266        -1.82738
H         41.31836        46.99728         2.01496
H         41.49591        55.47148        -1.29643
H         44.63695        44.83590         0.16713
H         42.61383        46.12137         0.55989
H         44.97946        58.18867        -0.50919
H         42.86505        57.12175        -0.67044
H         46.49091        43.86478        -0.41508
H         46.48398        59.28523         0.16897
H         48.62334        42.76321        -0.84448
H         48.58918        60.48885         0.05918
H         52.40642        40.62695        -0.96908
H         50.31492        41.83022        -0.98906
H         52.33470        62.59824         0.30980
H         50.22584        61.40905         0.25108
H         53.99089        39.57344        -0.70028
H         53.96405        63.50476        -0.11452
H         56.07407        38.31003        -0.63542
H         56.03413        64.73909        -0.09455
H         59.77224        36.11407         0.64955
H         57.67755        37.33174         0.46528
H         59.84928        66.87903        -0.29025
H         57.75458        65.63577        -0.30096
H         61.45701        35.12040         0.31226
H         61.52478        67.89376        -0.06919
H         63.56858        33.96156         0.79384
H         63.62527        69.10486        -0.05753
H         67.36966        31.92522         1.22538
H         65.34132        33.08897         1.11635
H         67.51552        71.05617        -0.23315
H         65.41214        69.83384        -0.43234
H         69.15923        30.89778         1.29482
H         69.25303        71.85753        -0.68114
H         73.26971        30.83750        -0.04469
H         71.26299        29.66716         0.87514
H         73.15415        33.22282        -0.68120
H         73.30174        35.25149        -0.28771
H         73.26197        37.69555        -0.20402
H         73.25875        39.63490        -0.12815
H         73.19655        42.08310        -0.22028
H         72.82679        44.07795         0.80856
H         72.70628        46.51683         0.69228
H         73.09775        48.24394        -0.81800
H         73.01384        50.66817        -0.32657
H         72.93584        52.18661         0.94287
H         72.96731        54.57186         1.45348
H         72.96851        56.51486         1.58905
H         73.00640        58.94319         1.57059
H         73.07618        60.80316         1.06111
H         73.12250        63.21356         0.96070
H         73.18233        65.01618         0.80197
H         73.32976        67.42268         0.92790
H         73.46645        69.24404         0.17716
H         73.39041        71.00379        -1.53344
H         71.29918        72.29360        -1.96407
