         268
 CSIRO Nanostructure Databank - Neutral Graphene Oxide Data Set
C        -10.74335         0.90475        -0.99987
C         -9.70182         1.53376        -0.17961
C         -8.50850         0.91422         0.07489
C         -7.73110         1.32463         1.31264
C         -6.33193         0.69672         1.51383
C         -5.10961         1.42063         2.06743
C         -3.75213         0.65767         2.14746
C         -2.45196         1.43984         2.31311
C         -1.13010         0.66251         2.23873
C          0.16055         1.49465         2.19922
C          1.54624         0.75230         1.99629
C          2.57835         1.63993         1.31034
C          3.71760         1.04680         0.51893
C          5.07107         1.71258         0.52754
C          6.26439         0.81525         0.67985
C          7.53792         1.36558         1.26245
C          8.82011         0.57306         1.13598
C         10.11965         1.32347         1.42414
C         11.33783         0.49555         1.06396
C        -10.06716         2.87175         0.45593
C         -8.85938         3.63266         0.99187
C         -7.67161         2.83821         1.39936
C         -6.34410         3.56127         1.43106
C         -5.10779         2.94455         2.04136
C         -3.78681         3.76391         2.18863
C         -2.46785         2.95805         2.26419
C         -1.18382         3.86137         2.33666
C          0.13074         3.01542         2.24922
C          1.41320         3.86946         2.05180
C          2.70509         3.02243         1.91609
C          3.95376         3.77228         1.60272
C          5.17419         3.07728         1.08949
C          6.49293         3.72303         1.43889
C          7.71195         2.86871         1.40446
C          8.95634         3.44583         0.79927
C         10.08318         2.67959         0.75048
C         -8.64306         5.07065         0.66307
C         -7.41219         5.59378         0.40089
C         -6.25602         4.58020         0.29514
C         -4.73961         4.94852         0.02753
C         -3.76963         4.98337         1.20933
C         -2.50646         5.77545         1.00852
C         -1.19230         5.20726         1.51449
C          0.08363         5.75556         0.91252
C          1.26274         4.76089         0.78591
C          2.53039         5.56736         0.49650
C          3.87694         5.15972         1.02857
C          5.19569         5.68628         0.46013
C          6.54385         5.11177         0.85733
C          7.75729         5.52182         0.07668
C          8.89289         4.74920         0.15039
C         -7.31465         7.00239         0.01306
C         -6.49604         7.39873        -1.00487
C         -4.65731         6.17911        -0.83244
C         -3.67466         7.11244        -0.84093
C         -2.43821         6.96924         0.02291
C         -1.19122         7.07510        -0.85079
C          0.10196         7.01523        -0.01735
C          1.09748         6.91445        -1.17422
C          2.48483         6.35758        -0.80279
C          3.47629         7.55149        -0.76445
C          5.39701         6.21776        -0.93771
C          6.46172         7.25027        -1.10651
C          7.68733         6.78108        -0.65885
C         -6.18874         8.72691        -1.47969
C         -4.92861         9.06537        -1.90803
C         -3.71760         8.33163        -1.65099
C         -2.49128         8.88507        -2.05354
C         -1.24871         8.29703        -1.74949
C         -0.04804         8.78116        -2.30818
C          1.18408         8.18246        -2.01583
C          2.41231         8.65245        -2.57697
C          3.65490         8.26719        -2.05981
C          4.94442         8.75614        -2.45486
C          6.18748         8.37278        -1.96328
C        -11.03852        -0.41874        -0.97015
C        -10.25176        -1.41300        -0.22254
C         -8.06876        -0.31369        -0.64574
C         -7.28213        -1.30305         0.18620
C         -6.10398        -0.60765         0.79910
C         -4.84135        -1.35763         0.98489
C         -3.70276        -0.82225         1.83698
C         -2.41774        -1.70196         1.91962
C         -1.10320        -0.84260         2.04972
C          0.20590        -1.50756         1.63225
C          1.46867        -0.70999         1.44838
C          2.48971        -1.22702         0.43159
C          3.67846        -0.39992         0.03120
C          4.94319        -0.99577        -0.69460
C          6.28707        -0.39887        -0.20878
C          7.57848        -1.14503        -0.34972
C          8.82359        -0.69715         0.36765
C         10.09938        -1.23115        -0.27475
C         11.32751        -0.66306         0.39262
C         -9.76526        -2.53201        -0.86056
C         -8.58103        -3.30866        -0.49799
C         -7.40189        -2.67129         0.11267
C         -6.22835        -3.54094         0.47771
C         -4.92420        -2.84293         0.75747
C         -3.61962        -3.40824         0.29503
C         -2.36814        -2.79180         0.84200
C         -1.13062        -3.63275         0.84414
C          0.14275        -2.92890         1.14401
C          1.32845        -3.53422         0.46782
C          2.49223        -2.70069         0.09211
C          3.74612        -3.37858        -0.39141
C          4.95700        -2.56524        -0.74495
C          6.26990        -3.31228        -0.89360
C          7.58402        -2.59103        -0.77607
C          8.82973        -3.37544        -0.52652
C         10.01527        -2.74390        -0.28232
C         -8.52653        -4.61983        -0.92391
C         -7.34992        -5.44113        -0.87977
C         -6.20676        -5.03329         0.03774
C         -4.86958        -5.53837        -0.51227
C         -3.59924        -4.76974        -0.34806
C         -2.29351        -5.50015        -0.45800
C         -1.04746        -4.92177         0.10183
C          0.11786        -5.62259         0.02776
C          1.41583        -5.03830         0.53323
C          2.64722        -5.60998        -0.12816
C          3.81453        -4.87081        -0.30000
C          5.08341        -5.50364        -0.58428
C          6.26521        -4.79482        -0.75157
C          7.54288        -5.48720        -0.80904
C          8.72958        -4.81319        -0.66760
C         -7.30448        -6.64124        -1.53315
C         -6.03590        -7.41370        -1.76270
C         -4.82950        -6.75761        -1.11863
C         -3.55614        -7.49816        -1.29146
C         -2.38404        -7.01251        -0.47188
C         -1.09920        -7.69537        -0.88277
C          0.16941        -6.98012        -0.56840
C          1.42479        -7.74586        -0.42459
C          2.60697        -7.03577        -0.33423
C          3.86868        -7.76027        -0.57150
C          5.12769        -6.98787        -0.67540
C          6.42165        -7.72624        -0.35905
C          7.58477        -6.99195        -1.04036
C         -6.06365        -8.90120        -1.45993
C         -4.92894        -9.62614        -1.42019
C         -3.58505        -8.99666        -1.47380
C         -2.35773        -9.77532        -1.12337
C         -1.15510        -9.18317        -0.91758
C          0.11726        -9.99120        -0.68955
C          1.42427        -9.19986        -0.54846
C          2.59577        -9.89275        -0.43520
C          3.91490        -9.21199        -0.13333
C          5.15362        -9.86124        -0.70678
C          6.30160        -9.17404        -0.80554
O          0.25823       -10.96982        -1.72439
H          0.31756       -10.50026        -2.58197
O          0.36439         8.16768         0.74763
H         -0.01572         8.02474         1.64555
O         -6.05294         3.74143         2.82790
O         -8.15207        -0.43395        -1.85917
O          4.82367        -0.55510        -2.04269
H          4.07937        -1.05477        -2.44867
O         -6.64051         3.79488        -0.88128
O         -6.50748        -5.83015         1.15582
O          1.53555        -5.45852         1.97334
O         -5.00870        -0.51838        -0.20397
O          0.24874         2.22897         3.46053
O          3.65337         3.35411         2.97311
O          7.20382         3.43010         2.65934
O          2.63556         1.79283        -0.12341
O          7.00703        -2.85178        -2.08304
O          3.08223         6.17203         1.68727
O          7.18006        -0.18038        -1.35718
O          1.29267        -1.55617         2.62485
O         -1.02821        -0.26541         3.37367
O         -1.01421         5.90131        -1.70161
O         -8.53330         0.82718         2.40350
H         -8.08934         1.10571         3.23613
O         -0.48380        -3.76092         2.15854
O        -12.13648         3.45841        -0.47368
H        -12.49772         4.14711        -1.08283
O         -0.34223         6.16307         2.22375
O         -5.77643         6.35853        -1.66833
O         -3.31328        -8.06944        -2.60501
O          2.34579        -4.46006         2.63950
H          1.67250        -3.94809         3.15814
O          2.49820        -0.50898        -0.82779
O         -2.50277         2.21044         3.53209
O          3.87621         8.05305         0.26828
O          4.08912        -9.21306         1.32489
H          3.25046        -8.90814         1.73263
O         -3.95246        -0.35892         3.18228
O         -0.37031        -7.05398        -1.95679
O          4.02999        -2.99021        -1.78883
O          4.45823        -7.48549        -1.89180
O          5.05045         5.58933        -1.92849
O         -4.18147         3.82154        -0.70732
H         -4.90576         3.46170        -1.27931
O          6.62472        -7.68910         1.06952
H          5.93037        -8.25877         1.47841
O         -2.82688        -4.79867        -1.60637
O          5.17139         2.85013        -0.36882
O          0.95394         3.86042        -0.28750
H          1.35008         4.18913        -1.13211
O          6.56815         0.67657         2.10522
O          5.98161         6.27465         1.52843
O         10.15930         1.55704         2.85117
H          9.87629         0.72661         3.29116
O          8.77054        -0.72824         1.82000
O         -5.67022        -3.46248         1.83588
O         -3.54968         6.18554         1.97374
O         -2.84607        -2.40700        -0.46300
O         -1.20505         4.35840         3.68782
H         -0.97923         3.60006         4.27524
O          1.51828         4.69124         3.19957
H          2.36566         4.48035         3.65742
O         10.13506        -0.76678        -1.64909
H          9.33999        -1.10022        -2.11876
O          7.52051        -7.23973        -2.45029
H          6.61579        -7.02386        -2.76359
O          0.43617         5.91799        -2.05835
O          2.12564         0.63742         3.30288
H          1.49355         0.15269         3.87877
O        -10.00050        -1.14074         1.07350
H         -9.42357        -1.82683         1.46670
O        -10.69747         3.73018        -0.54435
H         -6.79060         4.43867        -1.61200
O          1.41731        -3.00088        -0.88008
O         -6.04778         0.75448         2.94442
O         -2.62774        -7.43017         0.89984
H         -3.51589        -7.11525         1.17736
O         -8.58994         3.36713         2.40960
O         -3.89607         4.32795         3.50215
H         -2.99420         4.60530         3.80152
O         -2.35805         8.14920         0.85506
H         -2.99198         8.02495         1.59749
O         -5.83383        -7.30285        -3.20610
H         -4.90716        -7.60303        -3.38956
O          2.76365         5.38732        -1.82505
H          2.85714         5.83257        -2.69362
O         -2.52816        -2.43422         3.14004
H         -2.64583        -1.77871         3.86554
H         12.27409        -1.20117         0.22707
H         12.28901         0.86503         1.47810
H         10.99018         3.06450         0.26057
H          9.80537         5.08898        -0.36364
H          8.62439         7.30543        -0.90637
H          7.05603         8.95775        -2.30762
H          4.94499         9.54657        -3.22397
H          2.35885         9.40462        -3.38161
H         -0.08124         9.66656        -2.96151
H         -2.50053         9.79447        -2.67449
H         -4.79042        10.06654        -2.34675
H         -6.98640         9.48490        -1.49461
H         -7.98187         7.72595         0.50278
H         -9.52420         5.73029         0.65274
H        -10.80406         2.70546         1.28096
H        -11.38024         1.57398        -1.59886
H        -11.81194        -0.80293        -1.65374
H        -10.17334        -2.73781        -1.86175
H         -9.41901        -5.04786        -1.40654
H         -8.15905        -6.92220        -2.17079
H         -7.03761        -9.40762        -1.38435
H         -4.97223       -10.71415        -1.25500
H         -2.43361       -10.87404        -1.12466
H         -0.01681       -10.56908         0.26762
H          2.57483       -10.99267        -0.48492
H          5.10184       -10.91556        -1.01859
H          7.20342        -9.66224        -1.20538
H          8.56146        -7.39590        -0.67611
H          9.66920        -5.38640        -0.65317
H         10.93359        -3.33778        -0.15662
