         234
 CSIRO Nanostructure Databank - Neutral Graphene Oxide Data Set
C          1.24695         2.03322         0.69138
C          1.18942         3.41627         0.49672
C          2.45488         1.35019         0.60636
C          2.35270         4.15906         0.19053
C          1.11700         6.34022         0.25319
C          1.07978         7.72612         0.24595
C          2.32101         5.62471         0.06862
C          2.26321         8.48759         0.11950
C          1.08368        10.69528         0.01999
C          1.06592        12.12580         0.04286
C          2.23111         9.94880         0.17550
C          2.22435        12.88739         0.06774
C          1.14278        15.06632        -0.48882
C          1.20849        16.45207        -0.70294
C          2.26355        14.31727        -0.12277
C          2.42408        17.16060        -0.63752
C          2.48944        18.56407        -0.93635
C          3.64685         2.05463         0.30627
C          3.57698         3.46141         0.09284
C          4.89817         1.37310         0.20447
C          4.79608         4.15917        -0.35170
C          3.50972         6.37328        -0.15254
C          3.48255         7.78348        -0.06656
C          4.75611         5.65126        -0.54112
C          4.75403         8.54763        -0.17533
C          3.48313        10.69332         0.57718
C          3.50953        12.13089         0.07647
C          4.77498        10.00205         0.16209
C          4.82515        12.84240         0.11336
C          3.53013        15.05743         0.11424
C          3.62652        16.47360        -0.28787
C          4.83242        14.31915         0.29232
C          4.87155        17.12242        -0.33049
C          3.68630        19.22222        -0.93093
C          4.91733        18.52800        -0.65973
C          6.11165         2.06585         0.03442
C          6.09290         3.48545        -0.15481
C          7.36184         1.36261         0.03375
C          7.29207         4.24323        -0.11777
C          6.07469         6.41797        -0.72001
C          6.03087         7.77049        -0.01778
C          7.31553         5.62175        -0.33097
C          7.29533         8.51401         0.23242
C          6.06264        10.65762         0.68222
C          6.09243        12.14977         0.41814
C          7.31422        10.03028         0.06522
C          7.28467        12.83461         0.42488
C          6.12570        15.00952         0.11179
C          6.11733        16.41410        -0.11930
C          7.32459        14.28344         0.23632
C          7.35491        17.09243        -0.22727
C          6.13878        19.19106        -0.72648
C          7.37045        18.50747        -0.51347
C          8.58244         2.03914         0.05423
C          8.54917         3.51397         0.21523
C          9.83372         1.38277         0.03519
C          9.86629         4.24662         0.18696
C          8.59607         6.34585        -0.33752
C          8.59497         7.85479        -0.09851
C          9.86763         5.68087        -0.08299
C          9.82432         8.47480         0.47134
C          8.56510        10.73747         0.57074
C          8.54432        12.10139         0.62174
C          9.81001         9.96507         0.79197
C          9.79241        12.87806         0.85160
C          8.58171        14.97526         0.20312
C          8.58471        16.38489        -0.04858
C          9.81546        14.30329         0.44854
C          9.82371        17.08371        -0.10213
C          8.59176        19.17905        -0.59991
C          9.82173        18.50068        -0.39297
C         11.08001         2.05798         0.02163
C         11.12708         3.50661         0.02061
C         12.29160         1.33602        -0.03974
C         12.31590         4.20760        -0.10662
C         11.08716         6.38733        -0.01613
C         11.10672         7.80704         0.19923
C         12.32248         5.65563        -0.04386
C         12.30868         8.51386         0.37930
C         11.11567        10.65557         0.76497
C         11.11535        12.13244         0.91220
C         12.29215         9.95293         0.63910
C         12.35957        12.87398         0.60029
C         11.05059        14.98913         0.36665
C         11.05004        16.40041         0.10316
C         12.31785        14.28434         0.44357
C         12.29211        17.12368         0.08099
C         11.03322        19.18629        -0.49275
C         12.27682        18.54493        -0.24384
C         13.56993         1.93527        -0.16049
C         13.64487         3.47068        -0.03580
C         14.69077         1.09488        -0.05217
C         14.70148         4.26723        -0.80898
C         13.52917         6.40795        -0.00748
C         13.53270         7.79692         0.20627
C         14.75842         5.73490        -0.49127
C         14.83370         8.46452         0.47821
C         13.57796        10.70297         0.76620
C         13.57525        12.17011         0.53357
C         14.88115         9.95738         0.65663
C         14.81019        12.85987         0.36407
C         13.55411        14.99618         0.31966
C         13.50987        16.44092         0.23855
C         14.78859        14.28386         0.32221
C         14.74534        17.21970         0.36046
C         13.45333        19.27127        -0.42627
C         14.73568        18.74419        -0.02489
C         16.03314         1.51133        -0.41249
C         16.01005         3.65473        -1.06405
C         17.25678         1.29731         0.14283
C         17.20539         4.27024        -0.85866
C         16.07668         6.38805        -0.38903
C         16.11602         7.73392         0.22710
C         17.24163         5.69427        -0.62651
C         17.44322         8.48060         0.29186
C         16.09442        10.70372         0.22487
C         16.03918        12.09140         0.14159
C         17.33651         9.97542         0.00220
C         17.28860        12.83840        -0.13694
C         16.07512        15.03122         0.16984
C         16.05804        16.55057         0.16900
C         17.31749        14.22652         0.39095
C         17.26895        17.42561         0.24665
C         15.98197        19.37386        -0.45419
C         17.23408        18.78092        -0.24109
C         18.50499         2.15426        -0.09051
C         18.44337         3.44156        -0.94622
C         19.73695         1.34401        -0.43236
C         19.75669         4.16686        -1.07809
C         18.50660         6.42266        -1.02368
C         18.57585         7.80723        -0.45679
C         19.78678         5.63213        -0.85404
C         19.80408         8.44080        -0.41661
C         18.53348        10.62951        -0.16687
C         18.60021        12.09699        -0.19287
C         19.81260         9.91650        -0.36386
C         19.84421        12.71465         0.32957
C         18.42561        14.65914         1.02887
C         18.46306        16.83508         0.71272
C         19.77918        14.01365         1.09928
C         19.69919        16.92554         0.09199
C         18.44872        19.58185        -0.27965
C         19.70217        19.00863        -0.43883
C         20.90362         1.92809        -0.73515
C         21.08610         3.40467        -1.01830
C         22.09546         4.09062        -0.13492
C         20.96330         6.25742        -0.45647
C         21.02913         7.70363        -0.39182
C         22.08363         5.42983        -0.00128
C         22.23539         8.41163        -0.07370
C         21.13262        10.64082        -0.13734
C         21.05352        12.04801         0.35821
C         22.28797         9.76690         0.12460
C         22.23235        12.78197         0.73760
C         20.99459        14.89893         0.77708
C         20.95406        16.29042         0.44582
C         22.21060        14.16780         0.82082
C         22.08717        17.13315         0.29985
C         21.00493        19.42927        -0.03621
C         22.06888        18.54223         0.16018
O         15.50039         7.72201         1.57409
O          4.78157         9.57773        -1.23245
O         19.72537        17.71976        -1.04757
O          9.68143         8.94520         1.84379
O         19.03686         3.59900        -2.26721
O         20.58218        10.47951        -1.48637
O         16.00084         2.35576        -1.54590
O          9.15492         3.93906         1.48156
O          6.57990         7.87415         1.33172
O         18.33491        15.87478         1.74010
O         10.44843        12.60858         2.13519
O          4.56919         4.77389        -1.70947
O         17.97431        12.67187        -1.41427
O          8.72901         7.36974        -1.42756
O         16.10041        15.78679        -1.10035
O         14.75906        18.23501         1.37592
O         14.36369         5.20948        -1.85914
O          4.09013        14.77957         1.46933
O         14.36217        10.35591         1.96899
O          4.24838        12.36089        -1.16712
O         18.34521         6.57101        -2.48563
H         18.43597         5.66803        -2.86958
O          7.34382        10.27293        -1.35717
H          6.46592        10.00731        -1.73454
O         21.65572         3.47335        -2.35730
H         20.92045         3.27146        -2.97905
O          3.46491        10.78728         2.03864
H          3.03463         9.98317         2.39861
O         14.10033         3.65634         1.34962
H         13.44431         3.23237         1.94318
O         17.90711         8.41851         1.67878
H         17.09858         8.30494         2.23844
O         18.76821         2.74134         1.23196
H         18.84009         2.01060         1.88146
O         19.95362        13.65425         2.51841
H         19.79711        14.47182         3.03906
O          6.14208        10.45923         2.10467
H          5.29513        10.77505         2.50107
O          6.17824         6.74570        -2.12488
H          5.80667         5.97797        -2.61920
H          0.32321         1.48332         0.91965
H          0.21496         3.91430         0.58214
H          2.49284         0.26298         0.76305
H          0.17324         5.79970         0.40164
H          0.11559         8.23331         0.38674
H          0.12785        10.18936        -0.18063
H          0.08695        12.61940        -0.03497
H          0.17626        14.56252        -0.63207
H          0.29291        16.99335        -0.98108
H          1.55805        19.09860        -1.17286
H          4.91763         0.28177         0.33935
H          3.73169        20.29670        -1.16131
H          7.34986         0.26243         0.04591
H          6.16236        20.26449        -0.96696
H          9.84262         0.28337        -0.01546
H          8.60746        20.25513        -0.82761
H         12.23752         0.23664        -0.03991
H         11.03017        20.25777        -0.74081
H         14.51540         0.04545         0.23580
H         13.41054        20.25695        -0.91270
H         17.32329         0.64599         1.02911
H         15.92356        20.37984        -0.89472
H         19.68579         0.24981        -0.31634
H         18.36738        20.64768        -0.02166
H         21.79152         1.30130        -0.91575
H         22.92732         3.49724         0.27191
H         22.88974         5.92085         0.56282
H         23.15610         7.83251         0.08571
H         23.22497        10.21674         0.48360
H         23.20137        12.26426         0.76144
H         23.16962        14.70591         0.83518
H         23.07829        16.68962         0.47478
H         21.18918        20.50119         0.12712
H         23.04849        19.02136         0.32455
