         410
 CSIRO Nanostructure Databank - Neutral Graphene Oxide Data Set
C         28.22965        27.84094        -2.26244
C         28.12193        29.15758        -1.76638
C         26.95019        29.95142        -2.02313
C         27.93055        31.89012        -0.91065
C         26.87502        31.26758        -1.64519
C         27.95784        33.26781        -0.61850
C         26.74588        34.05728        -0.71184
C         27.95820        36.18422        -0.48576
C         26.71396        35.40046        -0.53923
C         27.97333        37.60306        -0.08720
C         26.74862        38.30836         0.19316
C         27.90034        40.47565         0.34959
C         26.70875        39.63590         0.49794
C         27.95763        41.87501         0.83632
C         26.75296        42.59808         1.03368
C         28.00225        44.64390         1.42615
C         26.76820        43.94723         1.31349
C         28.03724        46.03615         1.69662
C         30.51742        27.67473        -1.41632
C         29.39937        27.12226        -2.08224
C         30.39905        28.97019        -0.83522
C         29.19478        29.69434        -1.01086
C         30.27935        31.71510         0.15510
C         29.03292        31.03979        -0.44427
C         30.34138        33.18691         0.11946
C         29.18452        33.90311        -0.21002
C         30.43274        36.06702         0.24978
C         29.26476        35.37297        -0.31035
C         30.39925        37.45580         0.35095
C         29.20479        38.23176         0.12778
C         30.44831        40.42176         0.64140
C         29.23568        39.70985         0.21151
C         30.45570        41.78264         0.91423
C         29.20220        42.52680         0.98683
C         30.46546        44.62579         1.45342
C         29.22668        43.92660         1.28707
C         30.47425        46.01649         1.69406
C         29.24415        46.69949         1.82280
C         33.18772        25.14161        -2.21917
C         31.94999        25.75553        -2.12772
C         32.90236        27.46025        -0.68340
C         31.79134        26.95350        -1.39829
C         32.73523        28.72635         0.07594
C         31.53637        29.58260        -0.15544
C         32.69503        31.63278         0.76638
C         31.52223        30.91621         0.20837
C         32.76715        33.11276         0.67057
C         31.59166        33.86097         0.40374
C         32.83329        35.92768         0.90156
C         31.62564        35.29248         0.53681
C         32.84131        37.37902         1.17869
C         31.58318        38.15591         0.89041
C         32.98091        40.29847         0.95537
C         31.69195        39.62591         0.63792
C         32.94321        41.74131         1.26313
C         31.70522        42.47487         1.21939
C         32.93531        44.58557         1.61668
C         31.70059        43.87087         1.44287
C         33.00527        45.98250         1.62357
C         31.76861        46.76408         1.99495
C         32.97664        48.79497         1.16926
C         31.81661        48.18245         1.49009
C         35.91433        24.56975        -3.19730
C         35.61961        25.05709        -1.89860
C         34.31491        25.63736        -1.53733
C         35.29680        27.39730        -0.00094
C         34.15358        26.77455        -0.67542
C         35.28785        28.75983         0.35389
C         33.98954        29.40291         0.60323
C         35.25998        31.58403         0.94334
C         33.98014        30.85653         0.94263
C         35.23165        32.99260         1.08407
C         34.00473        33.75570         0.94248
C         35.27969        35.86955         1.30182
C         34.04582        35.19002         1.03356
C         35.34213        37.31719         1.45227
C         34.13319        38.09855         1.31683
C         35.36934        40.21095         1.62308
C         34.16288        39.49519         1.36150
C         35.39457        41.62251         1.63396
C         34.15382        42.35841         1.56994
C         35.49071        44.53390         1.44490
C         34.16621        43.80700         1.76180
C         35.42342        45.94081         1.04566
C         34.23454        46.67538         1.31722
C         35.43393        48.73607         0.66466
C         34.24222        48.08554         1.09436
C         35.59054        50.17811         0.72820
C         38.26409        24.20221        -2.59044
C         37.18313        24.09063        -3.50241
C         38.03218        24.83767        -1.33996
C         36.68774        25.04852        -0.99365
C         37.77129        27.31867         0.36955
C         36.51392        26.71032         0.25269
C         37.75355        28.73682         0.59431
C         36.50084        29.43549         0.63692
C         37.71251        31.52548         1.11989
C         36.48091        30.85115         0.90403
C         37.68114        32.92239         1.38760
C         36.46156        33.67298         1.32976
C         37.68179        35.73705         1.86400
C         36.46860        35.10136         1.46450
C         37.82642        37.21415         1.67141
C         36.55239        37.97479         1.70667
C         37.94110        40.19553         1.66997
C         36.59453        39.43415         1.86238
C         37.87948        41.60427         1.24094
C         36.64436        42.33797         1.43144
C         37.68801        44.27183         0.26588
C         36.61661        43.68753         1.07921
C         37.65601        45.75251        -0.08683
C         36.52847        46.56289         0.42684
C         37.66953        48.57668        -0.49511
C         36.54792        47.95414         0.24580
C         37.74087        50.11022        -0.47906
C         36.71572        50.81265         0.30864
C         40.98585        21.89323        -3.86368
C         39.85383        22.69888        -3.85617
C         40.41388        23.56302        -1.63264
C         39.53694        23.53742        -2.75556
C         40.33098        24.58149        -0.59191
C         39.12182        25.27904        -0.46856
C         40.21497        27.20382         0.61260
C         39.03252        26.55940         0.25295
C         40.19127        28.61841         1.05135
C         38.96055        29.42136         0.89344
C         40.20180        31.55092         1.26386
C         38.96201        30.81408         1.14216
C         40.17966        32.93795         1.51760
C         38.90086        33.57341         1.73238
C         40.67078        35.99485         2.03459
C         38.75754        34.91224         2.17204
C         40.49626        37.33616         1.68647
C         39.14858        37.95943         1.57819
C         40.30683        40.07013         0.95115
C         39.17206        39.43766         1.42987
C         40.20735        41.42654         0.30504
C         39.00632        42.22749         0.72076
C         40.13539        44.28169        -0.09461
C         38.98316        43.59185         0.28275
C         40.09103        45.63888        -0.55079
C         38.92593        46.40015        -0.46270
C         39.99576        48.43780        -1.39103
C         38.92073        47.81531        -0.76639
C         39.93543        49.87755        -1.59652
C         39.02191        50.72056        -0.89587
C         40.36339        52.68638        -1.49467
C         39.26601        52.10964        -0.85358
C         43.03072        21.02260        -2.63750
C         41.79187        21.78669        -2.70205
C         43.06798        23.11728        -0.48110
C         41.37833        22.53745        -1.59071
C         42.90207        24.45940        -0.12746
C         41.54025        25.01592         0.16667
C         42.78758        27.24680         0.69092
C         41.50506        26.47837         0.68543
C         42.76645        28.64864         0.82098
C         41.50715        29.37135         1.14726
C         42.62732        31.54415         0.79358
C         41.46653        30.85530         1.04726
C         42.62657        32.99943         0.59666
C         41.38582        33.74115         1.12266
C         42.71427        35.84388         0.80266
C         41.61341        35.17823         1.39534
C         42.79301        37.25397         0.87158
C         41.62432        37.99306         1.14519
C         42.73656        40.07846         0.42536
C         41.56498        39.39638         0.82843
C         42.69129        41.51664         0.24981
C         41.49866        42.20183         0.35153
C         42.71235        44.45940         0.23122
C         41.43709        43.67182         0.27466
C         42.67621        45.74710        -0.59695
C         41.33697        46.25380        -1.09592
C         42.53941        48.24861        -2.11189
C         41.17096        47.56218        -1.90727
C         42.58385        49.41839        -2.88621
C         40.83076        50.54583        -2.45998
C         42.35634        52.40764        -3.03941
C         41.17689        51.90330        -2.34813
C         44.12345        21.36537        -1.89070
C         45.41784        23.32575        -0.92627
C         44.23261        22.57365        -1.07954
C         45.34539        24.60469        -0.29200
C         44.08946        25.22610         0.00105
C         45.25431        27.35272         0.42915
C         44.03540        26.60957         0.40136
C         45.20708        28.75922         0.62867
C         43.96895        29.39251         0.72422
C         45.13309        31.65897         0.80922
C         43.90981        30.86234         0.41645
C         45.17470        32.98992         0.43771
C         43.90921        33.72215         0.34662
C         44.87810        35.93356        -0.31976
C         43.82857        35.11304         0.24172
C         45.14704        37.24475         0.00081
C         44.10514        37.98307         0.78397
C         45.17629        40.08036        -0.00999
C         43.98443        39.41007         0.31745
C         45.17987        41.52138        -0.05913
C         43.94666        42.22211         0.09685
C         45.21044        44.22689         0.30916
C         43.95441        43.62383         0.20012
C         45.13175        46.29853        -0.31424
C         43.87890        46.61330        -0.80567
C         45.00917        48.44885        -2.01301
C         43.78971        47.75088        -1.68006
C         44.96465        49.72767        -2.64802
C         43.69023        50.28214        -2.99776
C         43.47415        51.67771        -3.34893
C         47.85113        23.50152        -1.15796
C         46.69167        22.90550        -1.50361
C         47.84869        24.51702        -0.03751
C         46.56770        25.33407        -0.08425
C         47.77682        27.46647         0.25547
C         46.51369        26.68493         0.18870
C         47.67513        28.72713         1.00921
C         46.47913        29.59291         0.64699
C         47.56313        31.77182         1.52728
C         46.28690        30.92204         1.45578
C         47.62817        33.11202         0.98411
C         46.47218        33.67935         0.38729
C         47.74244        35.77293        -0.04491
C         46.65752        34.89590        -0.28475
C         47.66078        37.20286        -0.24163
C         46.41247        37.91760        -0.23117
C         47.63765        40.07106        -0.30776
C         46.41416        39.34692        -0.17719
C         47.65027        41.50534        -0.34293
C         46.40807        42.23125        -0.21457
C         47.63715        44.49988        -0.24232
C         46.41477        43.64541        -0.08106
C         47.56807        45.90170        -0.81679
C         46.37248        46.66395        -0.93534
C         47.49465        48.51229        -2.07985
C         46.28967        47.87273        -1.70584
C         47.40969        49.80061        -2.68898
C         46.19399        50.39514        -2.93126
C         50.35336        24.65611         0.22497
C         49.13582        25.30060         0.10641
C         50.27453        27.42327         0.90861
C         49.10462        26.75649         0.28805
C         50.12926        28.68789         1.49808
C         48.76937        29.12449         1.71909
C         50.06154        31.82383         2.03772
C         48.69528        31.26617         2.09246
C         50.08052        33.25900         1.56498
C         48.84108        33.84149         1.00776
C         50.13668        35.90568         0.51079
C         48.90601        35.17027         0.51090
C         50.12208        37.26655         0.11871
C         48.88130        37.94032        -0.15390
C         50.10583        40.08396        -0.35650
C         48.87386        39.36107        -0.28778
C         50.09118        41.50034        -0.53512
C         48.86592        42.21212        -0.45848
C         50.10059        44.35113        -1.03949
C         48.90866        43.70212        -0.44470
C         50.03364        45.77192        -1.35124
C         48.77376        46.48428        -1.33297
C         49.96267        48.49226        -2.12512
C         48.74319        47.83492        -1.83101
C         51.54071        25.34729         0.54844
C         52.65642        27.38794         1.46082
C         51.52539        26.70917         0.94347
C         52.54904        28.80566         1.86032
C         51.26953        29.55131         1.79398
C         52.53160        31.72373         1.74505
C         51.28725        30.96985         1.89429
C         52.55824        33.14486         1.44682
C         51.36583        33.87722         1.21394
C         52.59752        35.96436         0.75616
C         51.36803        35.23686         0.82086
C         52.56680        37.33851         0.43045
C         51.35191        37.99948         0.09801
C         52.57387        40.11916        -0.36567
C         51.34483        39.39678        -0.20600
C         52.53583        41.49400        -0.76247
C         51.32500        42.19772        -0.79867
C         52.51976        44.25461        -1.60109
C         51.26470        43.60675        -1.16411
C         52.51506        45.75477        -1.80512
C         51.21589        46.46484        -1.69185
C         51.17088        47.83584        -2.02056
C         55.08767        27.42657         1.74278
C         53.92183        26.73094         1.66709
C         55.09187        28.89199         1.41158
C         53.84399        29.58685         1.93039
C         55.01817        31.72941         1.64675
C         53.78688        31.05213         1.76364
C         55.04024        33.13699         1.38927
C         53.80578        33.84344         1.26619
C         55.07761        35.92750         0.86420
C         53.83340        35.25193         0.99056
C         55.12074        37.40170         0.74550
C         53.79287        38.14501         0.51498
C         55.06103        40.16919        -0.23456
C         53.81428        39.48497        -0.09024
C         55.07680        41.51697        -0.65378
C         53.82455        42.10692        -1.25663
C         54.97175        44.33774        -1.22187
C         53.79978        43.60651        -1.27234
C         54.93571        45.78514        -1.32870
C         53.78528        46.46203        -1.56025
C         56.31683        29.64945         1.84286
C         56.25897        30.99726         1.88043
C         56.26126        33.83029         1.18492
C         56.27643        35.18647         0.92322
C         56.32926        38.11302         0.29527
C         56.29291        39.42263        -0.05499
C         56.24858        42.32205        -0.63602
C         56.21393        43.66660        -0.92928
O         40.85831        28.85076         2.35092
O         39.78611        35.44057         2.95070
O         41.39648        49.81636        -3.51095
O         38.48067        37.42530         0.32537
O         31.89487        37.77128         2.27016
O         35.03747        44.29101         2.82094
O         29.23464        31.15093         1.00677
O         53.28251        29.06010         3.14351
O         48.59523        30.04423         2.76277
O         33.13247        28.60647         1.48029
O         37.38267        39.92638         2.99938
O         52.51430        44.83343        -2.96213
O         41.98184        44.40519         1.48330
O         41.39432        25.31919         1.57900
O         42.13351        45.33111        -1.92141
O         45.22919        45.51741         0.83174
O         48.60092        27.47811        -0.96053
O         33.13143        31.16071         2.09271
O         36.42668        25.31736         0.35590
O         41.58904        33.47891        -0.32315
O         48.57834        44.31889         0.86688
O         37.21802        44.73258        -1.05449
O         37.17844        49.36458        -1.61927
O         32.60089        39.98727        -0.45864
O         54.43265        38.08577         1.84136
O         50.11801        32.92895         3.01570
O         41.96540        22.26304        -0.34649
O         28.84912        35.89668        -1.61296
O         45.71269        35.28596        -1.24524
O         28.57501        40.33264        -0.93900
O         46.77858        30.02991        -0.70369
H         46.99297        29.24105        -1.24725
O         40.73145        47.13682        -3.21684
H         41.27378        46.35405        -3.46104
O         39.96970        41.14146        -1.12447
H         40.65320        40.50158        -1.41781
O         53.89447        41.72449        -2.69446
H         53.34116        42.36484        -3.19372
O         44.58921        38.06507         2.17710
H         43.96258        38.63145         2.67569
O         31.81182        46.87918         3.46712
H         31.99380        45.98468         3.82683
O         47.75694        23.73802         1.20820
H         46.93925        23.19773         1.15737
O         45.85851        30.57827         2.78944
H         46.64954        30.24720         3.27357
O         55.00607        29.00131        -0.05116
H         55.82770        28.62342        -0.42878
O         43.90236        30.87199        -1.06234
H         43.83080        31.80576        -1.35782
H         27.38731        27.39716        -2.81147
H         26.12707        29.49519        -2.59147
H         25.99687        31.86012        -1.93660
H         25.79323        33.51897        -0.81574
H         25.74496        35.91622        -0.49630
H         25.81489        37.73145         0.24580
H         25.76772        40.08233         0.84840
H         25.78858        42.08433         0.92053
H         25.82559        44.50011         1.43217
H         27.09081        46.58321         1.81357
H         29.44815        26.10581        -2.49228
H         29.24093        47.77370         2.05254
H         33.29284        24.24398        -2.84395
H         31.10888        25.31340        -2.67536
H         32.95621        49.85073         0.86105
H         30.88415        48.76519         1.47548
H         35.12813        24.53975        -3.96468
H         34.81747        50.75929         1.25125
H         37.35680        23.63578        -4.48730
H         36.84708        51.88519         0.51298
H         41.23873        21.30833        -4.75925
H         39.19340        22.69763        -4.73424
H         40.56124        53.76167        -1.38205
H         38.57659        52.75809        -0.29480
H         43.13181        20.17604        -3.33528
H         42.39632        53.49441        -3.21645
H         45.03648        20.76499        -2.02547
H         44.33451        52.23464        -3.75255
H         48.80485        23.18081        -1.60180
H         46.68374        22.09917        -2.25119
H         48.32227        50.33845        -2.97766
H         46.16840        51.38547        -3.40626
H         50.40375        23.56703         0.08040
H         49.95906        49.53889        -2.45413
H         52.48173        24.78269         0.58850
H         52.09680        48.36933        -2.27300
H         56.04295        26.90514         1.90500
H         53.93874        25.63384         1.75198
H         55.87194        46.33662        -1.15726
H         53.78573        47.56083        -1.52275
H         57.25573        29.11206         2.04346
H         57.16457        31.56744         2.13136
H         57.21665        33.29319         1.24150
H         57.24314        35.69265         0.80017
H         57.28831        37.57727         0.25903
H         57.23606        39.90985        -0.33967
H         57.20401        41.87813        -0.32213
H         57.13568        44.26366        -0.88142
