         600
 CSIRO Nanostructure Databank - Neutral Graphene Oxide Data Set
C         23.45876        27.36796        -2.73727
C         23.42244        28.73911        -2.60985
C         23.36060        31.66707        -2.45362
C         23.32434        33.04181        -2.29500
C         23.21754        35.88428        -1.51564
C         23.19098        37.27904        -1.33572
C         23.10896        40.18763        -1.06538
C         23.07901        41.57322        -0.87910
C         23.06317        44.30126         0.32637
C         23.09759        45.58823         0.78709
C         25.89980        24.56650        -2.48439
C         24.71107        25.24285        -2.66654
C         25.86205        27.36641        -2.20902
C         24.67224        26.65401        -2.54334
C         25.80414        28.78448        -2.04098
C         24.58227        29.48007        -2.26060
C         25.67458        31.64472        -1.71716
C         24.53024        30.93124        -2.15075
C         25.68463        33.06017        -1.66409
C         24.47271        33.76980        -1.91039
C         25.65687        35.98150        -1.77092
C         24.40899        35.20490        -1.72920
C         25.63256        37.40441        -1.39473
C         24.36312        38.04873        -1.27330
C         25.55001        40.21172        -0.93361
C         24.32330        39.48902        -1.07813
C         25.52205        41.64004        -0.79564
C         24.25449        42.30419        -0.73815
C         25.45111        44.57151        -0.53685
C         24.17634        43.76544        -0.47169
C         25.50411        45.82550         0.24992
C         24.28747        46.37805         0.73988
C         25.46207        48.38852         1.48365
C         24.30211        47.71754         1.27358
C         28.38369        23.07529        -1.84081
C         28.37222        24.51481        -2.12163
C         27.09794        25.25872        -2.18951
C         28.29397        27.39026        -1.64485
C         27.09431        26.66367        -2.03173
C         28.20166        28.80846        -1.39528
C         26.97733        29.47187        -1.58490
C         28.13187        31.67500        -0.94599
C         26.84683        30.89357        -1.25172
C         28.11997        33.11832        -1.19828
C         26.93899        33.76963        -1.45719
C         28.16688        35.98391        -1.22978
C         26.97624        35.23581        -1.68154
C         28.09397        37.39703        -1.06517
C         26.83354        38.09782        -1.15663
C         28.00666        40.24199        -0.73475
C         26.79754        39.52098        -0.93069
C         27.97650        41.67606        -0.65753
C         26.74469        42.36535        -0.71722
C         27.98325        44.54591        -0.44128
C         26.74595        43.86849        -0.96067
C         27.95695        45.88883         0.02898
C         26.72218        46.47651         0.47062
C         27.97621        48.58266         1.05960
C         26.79017        47.69075         1.37065
C         27.98575        49.94580         1.36959
C         30.77313        23.13365        -1.26151
C         29.53494        22.43522        -1.51820
C         30.78970        24.54012        -1.21930
C         29.63869        25.29339        -1.74425
C         30.67389        27.41804        -0.94637
C         29.51476        26.72751        -1.43696
C         30.63189        28.83162        -0.80839
C         29.40299        29.54224        -1.03755
C         30.60904        31.69047        -0.73569
C         29.40176        30.94403        -0.95785
C         30.61664        33.10192        -0.77751
C         29.44406        33.82761        -1.39378
C         30.54872        35.98506        -0.66951
C         29.36694        35.28914        -1.02055
C         30.51273        37.40926        -0.57406
C         29.28379        38.11243        -0.75658
C         30.46407        40.25991        -0.45495
C         29.25416        39.54437        -0.64798
C         30.44635        41.69570        -0.42425
C         29.22010        42.39402        -0.53916
C         30.43638        44.53852        -0.39089
C         29.21769        43.83207        -0.47252
C         30.37771        46.03744        -0.52510
C         29.16524        46.61992         0.13532
C         30.37847        48.74581         0.51499
C         29.17023        47.98087         0.56984
C         30.36544        50.12568         0.83687
C         29.14230        50.71343         1.22916
C         33.18406        20.30209        -0.71372
C         32.02297        20.98468        -1.00624
C         33.14955        23.11521        -0.58705
C         31.96830        22.40052        -0.93733
C         33.10393        24.54326        -0.42161
C         31.91956        25.25275        -0.71952
C         32.97972        27.41156        -0.09584
C         31.86896        26.70603        -0.59629
C         32.98062        28.83005        -0.04289
C         31.80383        29.54684        -0.41444
C         32.96536        31.69546        -0.01284
C         31.79906        30.97627        -0.38913
C         32.96480        33.12684        -0.02832
C         31.78325        33.82594        -0.42037
C         32.95065        35.98780        -0.11485
C         31.77341        35.27015        -0.41941
C         32.93917        37.42401        -0.11023
C         31.72023        38.12987        -0.32157
C         32.91743        40.27646        -0.11318
C         31.70231        39.55868        -0.29642
C         32.90801        41.71302        -0.13238
C         31.67793        42.41255        -0.27980
C         32.90603        44.55671        -0.25808
C         31.67439        43.84731        -0.31482
C         32.91449        46.04055        -0.55139
C         31.64687        46.73608        -0.14606
C         32.86409        48.82335         0.29853
C         31.62973        48.07755         0.20411
C         32.84366        50.22241         0.56171
C         31.60315        50.89345         0.79248
C         32.81264        53.00578         0.99468
C         31.62410        52.28686         0.99845
C         35.68883        18.88275        -0.10552
C         35.58884        20.27845         0.00561
C         34.37620        20.99899        -0.38797
C         35.65144        23.15459        -0.22797
C         34.35519        22.40026        -0.34596
C         35.47946        24.58294         0.22544
C         34.27387        25.23947         0.05687
C         35.41865        27.42431         0.55523
C         34.11916        26.65865         0.54839
C         35.38941        28.83724         0.63770
C         34.14929        29.56338         0.38481
C         35.27121        31.72707         0.93317
C         34.12208        30.96511         0.40914
C         35.34316        33.19224         0.72231
C         34.15968        33.86702         0.28938
C         35.36479        36.00854         0.47551
C         34.16249        35.28448         0.20894
C         35.36432        37.43812         0.38206
C         34.14721        38.14516         0.11443
C         35.36727        40.29671         0.25196
C         34.14179        39.57261         0.08508
C         35.36482        41.73286         0.18215
C         34.12974        42.43410        -0.00416
C         35.36073        44.59238         0.02527
C         34.12109        43.86545        -0.08996
C         35.36021        46.02626         0.04215
C         34.14685        46.74349        -0.07023
C         35.33683        48.86696         0.26554
C         34.10975        48.13892         0.15444
C         35.31853        50.27714         0.42643
C         34.07240        50.96183         0.59370
C         35.31131        53.10560         0.82240
C         34.06027        52.36906         0.80594
C         35.35452        54.49871         1.04942
C         37.83534        18.81440         1.05653
C         36.80452        18.17496         0.35904
C         37.72135        20.25888         1.27425
C         36.65371        21.01208         0.60904
C         37.86881        23.14370         0.93587
C         36.71101        22.41708         0.55611
C         37.88030        24.59038         0.84060
C         36.67123        25.29142         0.61313
C         37.86756        27.43629         0.87373
C         36.64133        26.72589         0.69004
C         37.84369        28.85992         0.94768
C         36.59768        29.53574         0.86927
C         37.82957        31.71618         1.22324
C         36.56500        30.97327         1.14948
C         37.73608        33.18491         1.59471
C         36.52541        33.89151         0.99414
C         37.77537        36.05122         1.03941
C         36.55853        35.31103         0.83304
C         37.76210        37.45076         0.92189
C         36.56926        38.16014         0.58843
C         37.81060        40.32531         0.58265
C         36.57812        39.59494         0.48173
C         37.81373        41.74766         0.48488
C         36.58038        42.45441         0.30646
C         37.78127        44.62496         0.43364
C         36.57524        43.89489         0.23721
C         37.81079        46.03405         0.35776
C         36.58566        46.74033         0.19899
C         37.79854        48.88732         0.14917
C         36.57892        48.16903         0.19973
C         37.77754        50.31704         0.19729
C         36.54686        51.00246         0.41878
C         37.78087        53.13366         0.59563
C         36.54366        52.41977         0.60444
C         37.78991        54.53445         0.84338
C         36.55583        55.18812         1.06801
C         40.20287        16.02389         1.86071
C         39.03813        16.70986         1.60477
C         40.23608        18.85934         1.70554
C         39.02021        18.12980         1.49480
C         40.27346        20.28254         1.65789
C         39.02635        21.04316         1.62159
C         40.29995        23.15897         1.38304
C         39.06531        22.47484         1.31321
C         40.32423        24.59486         1.26241
C         39.09773        25.30093         1.05374
C         40.31128        27.45517         1.22703
C         39.09616        26.73199         1.03994
C         40.28680        28.88122         1.28296
C         39.05802        29.58577         1.16712
C         40.24030        31.75171         1.81196
C         39.01579        31.02801         1.29430
C         40.24862        33.22004         1.43287
C         39.03422        33.91911         1.34516
C         40.27080        36.01888         1.19527
C         39.03273        35.33160         1.22280
C         40.30600        37.48658         1.28876
C         38.98568        38.22996         1.18238
C         40.27240        40.33790         0.80158
C         39.03543        39.65400         0.82401
C         40.27915        41.76608         0.70277
C         39.04417        42.44428         0.63322
C         40.33401        44.66415         0.75228
C         39.00853        43.90213         0.77709
C         40.30397        46.09004         0.39735
C         39.06130        46.76294         0.34520
C         40.26646        48.86394        -0.06689
C         39.04925        48.17146         0.13116
C         40.16269        50.29507        -0.54367
C         38.99001        51.04594         0.06078
C         40.23620        53.17584         0.27658
C         39.00685        52.43785         0.28561
C         40.26853        54.52997         0.64127
C         39.04909        55.25568         0.88203
C         40.34702        57.31339         1.13660
C         39.12028        56.63425         1.12666
C         42.67080        16.01319         2.08286
C         41.44597        16.71496         1.93904
C         42.70986        18.83125         1.84605
C         41.46368        18.13557         1.84585
C         42.72551        20.26144         1.73926
C         41.50000        20.99017         1.65582
C         42.75204        23.12806         1.66593
C         41.51911        22.43162         1.58727
C         42.77866        24.58218         1.58978
C         41.54448        25.30283         1.39109
C         42.76954        27.45023         1.49334
C         41.55191        26.74055         1.36880
C         42.76605        28.89175         1.48059
C         41.52806        29.60433         1.41677
C         42.74160        31.71554         1.51143
C         41.52969        31.01816         1.51607
C         42.73214        33.18558         1.62607
C         41.47406        33.91522         1.38142
C         42.75396        36.04642         1.04606
C         41.49959        35.32196         1.22437
C         42.74588        37.46412         0.81039
C         41.54258        38.20907         0.95025
C         42.74916        40.32102         0.56074
C         41.52495        39.61295         0.80351
C         42.76087        41.74978         0.48231
C         41.53498        42.48712         0.61413
C         42.77251        44.61189         0.28653
C         41.56531        43.89440         0.53631
C         42.76978        46.03782         0.14940
C         41.52167        46.77246         0.17000
C         42.75473        48.90378        -0.23043
C         41.49846        48.18086        -0.06196
C         42.73657        50.28716        -0.34026
C         41.48077        51.04616        -0.46660
C         42.78211        53.14240         0.29361
C         41.50005        52.51669        -0.11321
C         42.75240        54.48884         0.72335
C         41.53633        55.20652         0.78160
C         42.82577        57.31938         0.93114
C         41.55128        56.62376         0.98598
C         43.87427        16.68752         2.06755
C         45.18750        18.80530         1.81773
C         43.92791        18.09926         1.92307
C         45.19097        20.22901         1.71693
C         43.96071        20.96043         1.72358
C         45.22421        23.07522         1.75042
C         43.97161        22.39092         1.73273
C         45.24218        24.53999         2.08993
C         43.98215        25.28145         1.70301
C         45.22760        27.41842         1.70602
C         44.01989        26.72390         1.63020
C         45.26126        28.91004         1.90915
C         43.98040        29.61607         1.55631
C         45.23932        31.74837         1.29625
C         43.98728        31.02282         1.48128
C         45.24908        33.13803         1.11244
C         44.03879        33.93023         1.40354
C         45.17061        35.99814         0.59088
C         43.97293        35.34835         1.00388
C         45.14101        37.38869         0.29834
C         43.95712        38.14423         0.46946
C         45.16010        40.30584         0.11439
C         43.96175        39.59144         0.36192
C         45.20633        41.72510         0.11251
C         43.98242        42.45485         0.27500
C         45.22312        44.57963        -0.02453
C         43.99705        43.88186         0.17905
C         45.22775        46.00418        -0.10701
C         43.99290        46.73217        -0.04858
C         45.23720        48.83731        -0.30475
C         44.00608        48.16419        -0.20471
C         45.28642        50.30026        -0.46829
C         43.97673        51.07893        -0.44994
C         45.25562        53.11628         0.30492
C         43.99524        52.46605         0.06154
C         45.27926        54.45295         0.77799
C         44.01311        55.15611         1.21037
C         43.99302        56.64313         0.94280
C         47.62071        18.81904         1.65712
C         46.42361        18.12683         1.80388
C         47.64067        20.21395         1.52225
C         46.42611        20.93065         1.58787
C         47.65955        23.08645         1.33795
C         46.42190        22.37538         1.59548
C         47.63375        24.53900         1.29354
C         46.49356        25.23821         1.63599
C         47.69540        27.40158         1.22400
C         46.54773        26.71188         1.92027
C         47.65152        28.84880         1.08154
C         46.48470        29.57873         1.31624
C         47.66843        31.68728         0.85366
C         46.46701        31.00080         1.14322
C         47.67084        33.10307         0.59203
C         46.42367        33.83905         0.67328
C         47.56825        35.90093        -0.11628
C         46.37375        35.22606         0.41765
C         47.64593        37.37081        -0.13235
C         46.35259        38.06152        -0.20024
C         47.67910        40.25024        -0.22215
C         46.37424        39.57303        -0.26985
C         47.68101        41.67425        -0.20690
C         46.44295        42.41543        -0.10624
C         47.65853        44.55718        -0.40854
C         46.45378        43.84900        -0.16625
C         47.69423        45.98115        -0.39569
C         46.46615        46.70445        -0.24096
C         47.72134        48.84074        -0.26226
C         46.47895        48.13039        -0.26023
C         47.73392        50.27114        -0.10506
C         46.52920        51.00546        -0.11647
C         47.73437        53.08741         0.38004
C         46.50043        52.40495         0.14766
C         47.70999        54.43427         0.79089
C         46.50450        55.08719         1.01630
C         49.95549        20.24292         0.51461
C         48.96482        20.93393         1.41798
C         49.99998        23.09010         0.58242
C         48.83384        22.39804         1.06733
C         49.98447        24.52929         0.51804
C         48.83799        25.24027         0.89911
C         49.93408        27.37785         0.11202
C         48.79876        26.68386         0.82112
C         50.06294        28.82032         0.49465
C         48.87560        29.53942         0.77279
C         50.14863        31.63064         0.66187
C         48.89877        30.95803         0.76897
C         50.15076        33.07613         0.47904
C         48.88493        33.75011         0.32715
C         50.11677        35.93649        -0.13976
C         48.87832        35.14351        -0.13786
C         50.10623        37.31489        -0.23763
C         48.84690        38.05476        -0.24169
C         50.13463        40.20819        -0.32870
C         48.87913        39.51372        -0.28190
C         50.14375        41.63925        -0.42421
C         48.91484        42.34431        -0.37657
C         50.19282        44.50681        -0.86778
C         48.88409        43.78270        -0.68871
C         50.17539        46.00481        -0.85313
C         48.91996        46.71297        -0.53774
C         50.21606        48.83085        -0.26374
C         48.95143        48.11820        -0.37649
C         50.21520        50.25082        -0.02920
C         48.98193        50.96894         0.03809
C         50.22535        53.05116         0.33584
C         48.98314        52.37234         0.24393
C         50.98988        20.92458        -0.02317
C         52.30310        23.05451        -0.33039
C         51.11044        22.36598         0.10297
C         52.36758        24.47151        -0.25198
C         51.19971        25.22527         0.12990
C         52.47055        27.32704        -0.03568
C         51.23271        26.61806         0.12845
C         52.52203        28.71301         0.18448
C         51.30712        29.47325         0.43841
C         52.63819        31.59886         0.67069
C         51.34298        30.88748         0.60861
C         52.62138        33.09084         0.56118
C         51.33711        33.77876         0.34442
C         52.63268        35.91605        -0.09753
C         51.36841        35.13515        -0.32111
C         52.57831        37.33514        -0.11998
C         51.36463        38.05093        -0.24659
C         52.61344        40.20048        -0.30653
C         51.36759        39.47962        -0.29365
C         52.62011        41.62956        -0.39532
C         51.40038        42.35895        -0.48799
C         52.65832        44.49179        -0.38413
C         51.44664        43.78425        -0.56736
C         52.71536        45.94755        -0.38898
C         51.48954        46.72944        -0.68082
C         52.68435        48.82296        -0.06706
C         51.44581        48.15042        -0.29350
C         52.69286        50.23387         0.12208
C         51.44176        50.95236         0.12058
C         51.41478        52.36247         0.27778
C         54.57590        23.02657        -1.22890
C         53.44190        22.35682        -0.81734
C         54.67231        24.44183        -1.15285
C         53.55612        25.16337        -0.63677
C         54.83064        27.25137        -0.80523
C         53.64132        26.58518        -0.46271
C         55.01786        28.65161        -0.39948
C         53.83393        29.37844         0.19555
C         55.04827        31.60069        -0.29498
C         53.91986        30.86838         0.34936
C         55.01995        32.97272        -0.38668
C         53.89395        33.77141         0.12768
C         55.08312        35.87007        -0.39849
C         53.83735        35.21877        -0.17486
C         55.17222        37.29973        -0.12333
C         53.82640        38.07519         0.06017
C         55.09908        40.17995        -0.24062
C         53.84667        39.51080        -0.18885
C         55.08344        41.59928        -0.25292
C         53.86731        42.32386        -0.33602
C         55.11618        44.45367        -0.15642
C         53.88351        43.75896        -0.25493
C         55.12949        45.88693         0.28303
C         53.87938        46.63660        -0.10326
C         55.13224        48.77782         0.14625
C         53.91573        48.08477        -0.03513
C         55.11324        50.17049         0.34270
C         53.92815        50.88689         0.32924
C         56.98271        24.47975        -2.13751
C         55.85898        25.15091        -1.57173
C         57.11643        27.28785        -1.74948
C         55.92973        26.55957        -1.39055
C         57.20827        28.71321        -1.57861
C         56.13496        29.44311        -0.96756
C         57.29164        31.55922        -1.41864
C         56.14409        30.84097        -0.90929
C         57.30365        32.98174        -1.45229
C         55.99994        33.71269        -1.27494
C         57.35894        35.87890        -1.28651
C         56.17778        35.17136        -0.90433
C         57.40876        37.31734        -1.18236
C         56.32539        38.03761        -0.61202
C         57.52281        40.14005        -0.86538
C         56.33262        39.45315        -0.49869
C         57.65987        41.55802        -0.53485
C         56.34202        42.32405        -0.16208
C         57.56552        44.47052        -0.51359
C         56.34404        43.77902        -0.28799
C         57.54573        45.91771        -0.46455
C         56.39522        46.60709        -0.08347
C         57.61720        48.76727        -0.36743
C         56.46464        48.05999         0.29617
C         58.11526        25.17048        -2.49946
C         59.38406        27.29028        -2.69446
C         58.20894        26.58062        -2.31381
C         59.46397        28.65353        -2.54054
C         58.38107        29.40105        -1.98995
C         59.59462        31.57597        -2.22898
C         58.43668        30.83888        -1.86934
C         59.61477        32.95460        -2.18288
C         58.45449        33.69490        -1.83199
C         59.56445        35.90107        -2.31010
C         58.46797        35.16422        -1.82605
C         59.60229        37.29286        -2.24362
C         58.55079        38.03168        -1.66709
C         59.69214        40.25901        -1.96264
C         58.59942        39.47448        -1.50606
C         59.73953        41.64314        -1.80520
C         58.75743        42.34765        -1.08407
C         59.90501        44.55091        -1.23946
C         58.75542        43.78225        -0.91801
C         59.89113        45.94201        -1.19381
C         58.73496        46.64513        -0.82288
C         58.68769        48.08822        -0.83891
O         57.28269        41.85262         0.84599
O         54.84653        28.75621         1.06447
O         53.53014        33.66389         1.56156
O         27.23320        31.23447         0.12630
O         43.50447        33.69890         2.75756
O         38.03795        20.68144         2.63392
O         24.49020        44.62286        -1.64660
O         53.55903        31.18855         1.73212
O         29.33194        24.94795        -3.14271
O         26.47076        35.67747        -2.98163
O         48.07751        35.30663        -1.37516
O         50.90426        46.52670        -2.01939
O         41.54211        52.06802        -1.52875
O         44.69309        50.83312        -1.70823
O         39.61082        37.97495         2.48976
O         46.16610        38.76004        -1.48566
O         54.66058        37.67404         1.18696
O         35.66166        31.31986         2.30034
O         39.65026        44.37200         2.01831
O         49.46516        44.00927        -2.03969
O         29.69149        33.79304        -2.84654
H         28.99254        34.33176        -3.27740
O         33.72513        26.54061         1.97013
H         34.46779        26.10886         2.44399
O         46.83147        26.81852         3.37750
H         46.23174        26.15183         3.80665
O         26.84629        44.00027        -2.41507
H         25.92297        44.13809        -2.74002
O         49.54838        20.89245         2.76969
H         50.41049        21.35859         2.72725
O         43.99796        55.02057         2.68398
H         43.18971        55.47504         3.00509
O         55.10585        45.83625         1.78417
H         55.74355        45.13916         2.05413
O         51.39793        34.81165        -1.77117
H         50.47175        34.65332        -2.05963
O         56.74473        48.07631         1.74578
H         56.10192        47.43832         2.14611
O         37.55215        33.18610         3.05322
H         36.75988        32.61592         3.22286
O         40.09130        31.72678         3.26679
H         39.27812        32.24894         3.47994
O         36.18877        23.23436        -1.60448
H         35.50893        23.67796        -2.15530
O         39.82901        50.17742        -1.96414
H         40.19041        50.98593        -2.39825
O         32.96858        46.13019        -2.03065
H         32.03336        46.03804        -2.35031
O         27.07520        47.16256         2.73026
H         26.30476        46.61516         2.99314
O         45.39664        29.10214         3.36510
H         46.07681        28.44640         3.67035
O         30.22171        46.27768        -2.00551
H         29.93936        47.21179        -2.11433
O         45.26954        24.58972         3.58734
H         45.86616        23.86958         3.88753
O         55.36321        33.71850        -2.60769
H         55.98467        34.15600        -3.22787
O         49.55397        27.39882        -1.32515
H         49.45904        26.46439        -1.60972
H         22.54633        26.81121        -2.99407
H         22.46821        29.25746        -2.77018
H         22.45381        31.15517        -2.80035
H         22.39281        33.57879        -2.51992
H         22.26704        35.33425        -1.47963
H         22.21188        37.75636        -1.20083
H         22.15676        39.65841        -1.19771
H         22.10847        42.08758        -0.85892
H         22.18534        43.66905         0.51933
H         22.22087        46.00534         1.30489
H         25.91776        23.47595        -2.61169
H         23.79232        24.69647        -2.92210
H         25.42559        49.40461         1.90071
H         23.33616        48.20075         1.48573
H         27.44355        22.50792        -1.87517
H         27.07775        50.43745         1.74422
H         29.49678        21.35066        -1.35086
H         29.09704        51.77915         1.48933
H         33.17732        19.20476        -0.74868
H         31.13269        20.40833        -1.28847
H         32.76472        54.09150         1.15200
H         30.68580        52.83417         1.15991
H         34.89545        18.31656        -0.61113
H         34.42725        55.05999         1.22503
H         36.85801        17.09391         0.16998
H         36.53361        56.26910         1.25955
H         40.19192        14.92919         1.96206
H         38.09618        16.15278         1.50617
H         40.36138        58.40341         1.27966
H         38.20342        57.21685         1.28669
H         42.65264        14.91825         2.18107
H         42.81322        58.41610         0.83953
H         44.80340        16.10979         2.16019
H         44.94218        57.19427         0.88169
H         48.56416        18.25621         1.66439
H         46.45898        17.03406         1.90260
H         48.64341        54.97140         1.00120
H         46.52494        56.10971         1.41636
H         49.89495        19.15307         0.38272
H         50.25413        54.14205         0.45144
H         51.74155        20.37786        -0.60967
H         52.35219        52.92739         0.35654
H         55.42271        22.43822        -1.60649
H         53.43052        21.26061        -0.87860
H         56.05314        50.70399         0.53809
H         53.96770        51.97028         0.49890
H         56.95107        23.39338        -2.29485
H         57.62314        49.86654        -0.39013
H         58.96967        24.63623        -2.93960
H         60.22746        26.73199        -3.12569
H         60.38009        29.16902        -2.85753
H         60.50629        31.05018        -2.54171
H         60.54369        33.47717        -2.44662
H         60.42335        35.38192        -2.75605
H         60.48913        37.80976        -2.63460
H         60.51928        39.77302        -2.49741
H         60.58792        42.18652        -2.24415
H         60.83318        44.04081        -1.53084
H         60.79990        46.50262        -1.45675
H         59.54927        48.63078        -1.25730
