         429
 CSIRO Nanostructure Databank - Neutral Graphene Oxide Data Set
C          1.54835         3.80985         2.45121
C          0.39741         4.55198         2.65914
C          1.43749         6.53577         1.65621
C          0.33464         5.89563         2.27209
C          1.39463         7.93577         1.29062
C          0.22688         8.72085         1.48493
C          1.32098        10.70419         0.57310
C          0.18645        10.05143         1.13337
C          1.26555        12.08472         0.17421
C          0.13307        12.94140         0.47042
C          0.97027        14.74754        -1.04626
C          0.02739        14.20658         0.00113
C          1.06800        16.26996        -1.03336
C         -0.13671        16.98066        -1.10635
C          1.03042        19.12387        -1.12309
C         -0.16448        18.37098        -1.13890
C          1.02200        20.56739        -1.09540
C         -0.19164        21.32047        -1.08288
C          0.95864        23.48879        -0.98497
C         -0.22525        22.70089        -1.06182
C          0.95265        24.88612        -0.88159
C         -0.21600        25.70499        -0.96164
C          1.03665        27.81509        -0.59500
C         -0.15684        27.08298        -0.91969
C          1.09233        29.18973        -0.44783
C         -0.05915        30.05237        -0.63151
C          1.30845        32.11701        -0.37228
C         -0.00486        31.39934        -0.51222
C          1.25858        33.54114         0.13528
C          0.07880        34.27170         0.37602
C          1.28298        36.42979         0.36413
C          0.08928        35.63608         0.62276
C          1.38900        37.82085         0.83844
C          3.82354         3.63119         1.58569
C          2.68711         4.39880         1.82028
C          3.76062         6.40654         0.80130
C          2.62508         5.78795         1.41479
C          3.71373         7.77351         0.45653
C          2.54302         8.55513         0.71853
C          3.69938        10.59600        -0.12703
C          2.50902         9.94536         0.36829
C          3.63720        11.99849        -0.46229
C          2.39567        12.67439        -0.43216
C          3.61104        14.84580        -0.96814
C          2.31959        14.04562        -0.97292
C          3.56245        16.32498        -0.98006
C          2.29586        16.99150        -1.05961
C          3.50729        19.15693        -1.18041
C          2.27835        18.42510        -1.10781
C          3.47708        20.58425        -1.22837
C          2.25970        21.26641        -1.11776
C          3.53976        23.47654        -0.96495
C          2.24405        22.73802        -0.89748
C          3.52509        24.96256        -1.09018
C          2.23185        25.65405        -0.90054
C          3.56572        27.71049        -0.17909
C          2.22994        26.98215        -0.17667
C          3.58143        29.03167         0.15914
C          2.30807        29.79915         0.16624
C          3.65038        31.96959         0.79714
C          2.33606        31.28117         0.38627
C          3.70076        33.43826         0.42609
C          2.54374        34.17447         0.24836
C          3.85261        36.32376         0.56472
C          2.60837        35.65126         0.17340
C          3.85081        37.71582         0.87303
C          2.58880        38.43017         0.98766
C          6.26478         3.72532         1.66017
C          5.03886         4.15831         0.90408
C          6.18113         6.27697         0.34666
C          5.00339         5.66067         0.67732
C          6.19342         7.62632        -0.26091
C          4.85741         8.40831        -0.22168
C          6.10980        10.56349        -0.79136
C          4.87839         9.87197        -0.34915
C          6.13582        12.04707        -0.55047
C          4.85659        12.74973        -0.58701
C          6.01978        14.93090        -0.19250
C          4.82998        14.14083        -0.56229
C          6.01546        16.39515        -0.52078
C          4.75742        17.05467        -0.96201
C          6.01676        19.18685        -1.13616
C          4.75730        18.46550        -1.11427
C          6.02024        20.57825        -1.28732
C          4.74570        21.31004        -1.61783
C          5.99130        23.45768        -1.24684
C          4.80919        22.77000        -1.24352
C          6.01486        24.97388        -1.36901
C          4.79721        25.66669        -0.81731
C          6.09008        27.69346        -0.31763
C          4.81531        26.97466        -0.40786
C          6.12169        29.04526         0.04507
C          4.87200        29.72574         0.56826
C          6.19662        31.87583         0.58257
C          4.87999        31.21786         0.20496
C          6.16023        33.30690         1.05863
C          5.05394        34.10176         0.31444
C          6.22575        36.21059         1.08200
C          5.03790        35.57062         0.70448
C          6.27878        37.63558         1.21790
C          5.06234        38.35997         1.14731
C          8.69122         3.91400         2.01898
C          7.45758         4.38397         1.47671
C          8.61800         6.43816         0.65487
C          7.47646         5.48145         0.42568
C          8.64185         7.66423        -0.18901
C          7.47751         8.35368        -0.47399
C          8.65321        10.63391        -0.68574
C          7.42696         9.79662        -0.90956
C          8.55768        12.00938        -0.15868
C          7.28836        12.73899        -0.31876
C          8.57356        14.94232        -0.38404
C          7.32723        14.19793         0.11961
C          8.51908        16.35965        -0.70882
C          7.30637        17.07846        -0.75527
C          8.49162        19.17754        -1.23205
C          7.27402        18.47481        -1.04014
C          8.47862        20.60766        -1.36197
C          7.24370        21.31417        -1.32804
C          8.47568        23.45835        -1.37645
C          7.25469        22.74698        -1.36083
C          8.49756        24.89979        -1.15662
C          7.31105        25.61262        -0.96225
C          8.54638        27.70250        -0.53353
C          7.31222        27.00000        -0.60795
C          8.54379        29.10033        -0.26128
C          7.35005        29.77214         0.03424
C          8.66653        31.90394         0.47023
C          7.38168        31.20853         0.36927
C          8.67927        33.31947         0.79150
C          7.48683        34.00438         0.95242
C          8.76311        36.16937         1.41168
C          7.45236        35.42650         1.31957
C          8.76399        37.64642         1.31812
C          7.52774        38.31626         1.34246
C         11.16606         3.99033         2.09621
C          9.92760         4.56563         1.80454
C         11.17849         6.75536         1.17810
C          9.87356         5.97190         1.31406
C         11.14254         7.75989         0.03949
C          9.96622         8.07707        -0.58124
C         11.14516        10.75974        -0.48956
C          9.90536        10.15932        -0.94660
C         11.12085        12.11645        -0.26139
C          9.83988        12.82108        -0.09197
C         11.03431        14.93273        -0.75242
C          9.78781        14.28015        -0.37309
C         10.99269        16.35747        -1.04295
C          9.74603        17.05271        -0.99598
C         10.95502        19.14947        -1.47875
C          9.73373        18.45825        -1.23041
C         10.90329        20.57029        -1.85221
C          9.68180        21.33333        -1.56420
C         10.97796        23.44855        -1.53444
C          9.70536        22.74286        -1.53236
C         10.98396        24.88084        -1.26565
C          9.75843        25.58673        -1.07000
C         11.01784        27.66056        -0.71977
C          9.77498        26.98250        -0.78867
C         11.03960        29.05282        -0.20258
C          9.81479        29.88774        -0.47148
C         11.13454        31.92398         0.27778
C          9.87412        31.25002         0.18554
C         11.16560        33.33431         0.58020
C          9.94495        34.03361         0.83280
C         11.20746        36.12866         1.08387
C          9.98753        35.42529         1.07420
C         11.23454        37.56765         1.27542
C         10.00619        38.29836         1.29117
C         13.65933         3.95086         1.90912
C         12.41456         4.61857         1.73042
C         13.62823         6.41353         0.51545
C         12.39804         5.87297         1.09419
C         13.63638         7.83208        -0.08369
C         12.34734         8.56483        -0.15993
C         13.62325        10.66217        -0.16285
C         12.34202         9.93817        -0.30935
C         13.63126        12.14942        -0.10412
C         12.33266        12.94893         0.05025
C         13.50227        14.89749        -1.09266
C         12.24482        14.24494        -0.72680
C         13.48048        16.38756        -1.27751
C         12.18792        17.08574        -1.20278
C         13.46714        19.21546        -1.53815
C         12.19341        18.49229        -1.39874
C         13.48373        20.60045        -1.78715
C         12.21292        21.32514        -2.00433
C         13.47911        23.41426        -1.54390
C         12.17215        22.76378        -1.72141
C         13.49661        24.88662        -1.31636
C         12.20070        25.59107        -1.22610
C         13.49073        27.72243        -1.04735
C         12.21099        26.97720        -0.96844
C         13.55144        29.13372        -0.55637
C         12.32981        29.75844         0.00794
C         13.64076        31.84670         0.24943
C         12.38609        31.23221         0.13340
C         13.69578        33.35125         0.25378
C         12.39632        34.01619         0.64703
C         13.66041        36.05260         1.23438
C         12.42568        35.40422         0.94214
C         13.68407        37.45216         1.56485
C         12.46757        38.20398         1.44659
C         16.13688         3.93187         1.86149
C         14.89562         4.56556         1.58334
C         16.12415         6.50774         0.64685
C         14.91413         5.83984         0.92903
C         16.14501         7.86587         0.13074
C         14.91511         8.55584        -0.12163
C         16.11693        10.67827        -0.45403
C         14.90946         9.94250        -0.35579
C         16.10345        12.09308        -0.62912
C         14.78378        12.76982        -0.87428
C         15.99271        14.97870        -0.80233
C         14.79630        14.25916        -0.78294
C         15.98822        16.40408        -0.92431
C         14.68846        17.14962        -0.78749
C         15.93862        19.22436        -1.47715
C         14.70345        18.55057        -1.32431
C         15.95048        20.58924        -1.83532
C         14.72550        21.31467        -1.90035
C         15.92829        23.50093        -2.31380
C         14.70511        22.73379        -1.99123
C         15.93441        25.05794        -2.28081
C         14.73507        25.64630        -1.57054
C         15.99430        27.69550        -1.13458
C         14.75496        26.97770        -1.24738
C         15.95775        29.07537        -0.80738
C         14.85476        29.77932        -0.30353
C         16.12338        31.72376         0.68962
C         14.90378        31.12026         0.18682
C         16.04073        33.10134         1.16600
C         14.87972        33.89301         1.01230
C         15.94090        35.82677         2.10360
C         14.84342        35.26091         1.40435
C         16.04685        37.28789         2.51560
C         14.83266        38.04914         2.08911
C         18.60869         3.91009         1.82780
C         17.34991         4.55590         1.55575
C         18.59393         6.54569         0.76616
C         17.35919         5.87344         0.98472
C         18.60933         7.89845         0.29558
C         17.36860         8.56606         0.02323
C         18.57303        10.67772        -0.44429
C         17.38555         9.98135        -0.31895
C         18.60426        12.13960        -0.83185
C         17.27969        12.84411        -0.68313
C         18.46340        15.01350        -0.59568
C         17.25802        14.26864        -0.72378
C         18.44087        16.43642        -0.69189
C         17.19617        17.12688        -0.95331
C         18.40523        19.27665        -1.10451
C         17.19036        18.53471        -1.19836
C         18.43716        20.65693        -1.45563
C         17.27067        21.19661        -2.25071
C         18.53071        23.47375        -2.26611
C         17.22579        22.72552        -2.38232
C         18.50887        25.02390        -2.07525
C         17.24069        25.69136        -1.77570
C         18.39570        27.40448        -0.34371
C         17.23061        26.97240        -1.19528
C         18.48378        28.64398         0.49020
C         17.63769        29.78512         0.25859
C         18.44793        31.63280         1.68551
C         17.33402        30.99073         0.97758
C         18.47283        33.05004         1.79618
C         17.18789        33.71794         1.75261
C         18.83422        36.04235         2.04134
C         17.01761        34.98412         2.34677
C         18.43628        37.26952         1.43218
C         17.23511        37.93153         1.79164
C         19.79335         4.53616         1.56776
C         21.03760         6.54182         0.80035
C         19.82499         5.87606         1.04501
C         21.04383         7.85801         0.33277
C         19.85189         8.55987         0.11074
C         20.92833        10.82936         0.30209
C         19.91184         9.97834        -0.42256
C         20.84242        12.18374         0.34867
C         19.73256        12.92210        -0.18882
C         20.83343        15.13888         0.07374
C         19.68987        14.32361        -0.23612
C         20.80598        16.50023        -0.05619
C         19.61970        17.20170        -0.46206
C         20.74961        19.43301        -0.41293
C         19.59918        18.62159        -0.64040
C         20.75468        20.77309        -0.70936
C         19.62077        21.41369        -1.31345
C         20.94542        23.50308        -1.72783
C         19.70921        22.77222        -1.77384
C         21.01399        24.85898        -1.77242
C         19.81185        25.76665        -1.78155
C         20.91930        27.13087         0.11161
C         19.71151        26.61273        -0.51915
C         20.78520        27.98700         1.17180
C         19.56536        28.69181         1.38884
C         20.82071        31.62528         2.33417
C         19.62255        30.95479         2.09870
C         20.89661        33.00545         2.09880
C         19.72970        33.74100         1.87674
C         20.65616        35.70012         0.52848
C         19.80174        35.18000         1.52028
C         20.44375        37.00743         0.05223
C         19.34283        37.76314         0.44422
O         11.64256        29.10428         1.13678
O         18.07648        35.52464         3.11135
O         18.72846        26.20040         0.46154
O          6.64438        10.12560        -2.09579
O         10.02795         8.96495        -1.66815
O          8.09243        35.68836         2.62429
O         11.46321        20.87677        -3.18511
O          2.99106        23.07137         0.35205
O          9.18505        12.30886         1.12951
O          1.86499        30.42725         1.46122
O         13.37842        28.84930        -2.00144
O          5.77405        15.92609         0.87868
O         19.58686        29.58891         2.45151
O         17.13223        29.80257        -1.05370
O         13.67304        23.96533        -0.14700
O          5.31230         7.69981        -1.42784
O         13.58738        15.54250        -2.44898
O          2.82720        25.57795        -2.24053
O         16.50938        23.05527        -3.61421
O         18.66710        24.40139        -3.39027
O         13.58258         6.65256        -0.95449
O          8.85797         6.75387         2.06871
O          1.89696        36.21653        -0.96301
O          3.05525        14.23632        -2.21786
O         13.86865        11.43296         1.13401
O         16.19583        37.39620         3.95752
H         16.99099        36.86786         4.19731
O         14.41596        12.46818        -2.27196
H         14.98354        13.01314        -2.85889
O          5.93315        25.20128        -2.82739
H          6.80108        24.95729        -3.21397
O         17.50846        20.68917        -3.60374
H         16.95800        21.24172        -4.20598
O         13.92518        33.73585        -1.15816
H         13.22572        33.30705        -1.69620
O         12.24254        13.35611         1.44162
H         12.57892        12.59924         1.97646
O          7.43839        14.14688         1.56287
H          7.05301        14.98772         1.90375
O         19.99031        26.72449        -2.85864
H         19.85874        26.23049        -3.69811
O         14.44793        17.26856         0.66560
H         15.18820        17.78522         1.04883
O          4.93911        29.63138         2.02192
H          5.07978        28.69003         2.25703
O          4.77859        31.28585        -1.23367
H          4.93954        32.22560        -1.49852
O          3.69111        31.93024         2.24256
H          3.28714        31.06978         2.51534
O          5.13324         3.56142        -0.45783
H          4.36555         3.88880        -0.97435
O         11.35287         7.51493         2.41257
H         10.44927         7.66916         2.77575
O         15.78109        25.48929        -3.66229
H         16.37596        24.91115        -4.19699
O         20.37789         9.88323        -1.82521
H         19.82302         9.20674        -2.26959
O          5.42721        34.04525        -1.11030
H          4.78982        34.60550        -1.60447
O          0.38948        14.38618        -2.33399
H          1.13036        14.39673        -2.98171
O          2.00081        26.62686         1.22487
H          1.82042        27.45457         1.71957
O          9.87603        30.15533        -1.91425
H          9.03756        30.59119        -2.17622
O          5.89493        33.34889         2.48163
H          5.13240        32.74569         2.67925
O          7.67431         4.84458        -0.85775
H          6.89275         4.25285        -0.99919
O          4.68329        21.31939        -3.10095
H          5.49254        21.76875        -3.42710
O          1.87150        32.21648        -1.72640
H          1.28070        32.79425        -2.25407
O         18.89732        12.16005        -2.28022
H         19.65311        11.53345        -2.41216
H          1.59794         2.75654         2.76118
H         -0.47525         4.08794         3.13964
H         -0.59043         6.45261         2.46803
H         -0.67615         8.26565         1.91195
H         -0.74601        10.61114         1.28360
H         -0.63838        12.56908         1.15987
H         -0.83456        14.82285         0.29619
H         -1.08475        16.42605        -1.13941
H         -1.13866        18.87533        -1.17902
H         -1.15150        20.78736        -1.11131
H         -1.20299        23.20236        -1.08173
H         -1.19647        25.23080        -1.11389
H         -1.08985        27.64216        -1.07988
H         -1.02835        29.58168        -0.85216
H         -0.91999        31.98983        -0.66728
H         -0.87705        33.73182         0.45004
H         -0.80868        36.13608         1.01327
H          0.45864        38.36331         1.06496
H          3.82038         2.56998         1.87758
H          2.63115        39.48075         1.31211
H          6.19174         2.87585         2.35560
H          5.07277        39.44686         1.31694
H          8.68867         2.95129         2.55370
H          7.51896        39.41630         1.37493
H         11.19926         2.97075         2.50826
H         10.04226        39.39785         1.31676
H         13.66770         2.95129         2.36786
H         12.49529        39.28899         1.62776
H         16.13990         2.93714         2.33125
H         14.79510        39.11877         2.34909
H         18.59658         2.89388         2.24821
H         17.03281        38.88225         1.26960
H         20.74785         4.03012         1.77389
H         21.98885         6.02237         0.98470
H         22.00716         8.34961         0.13716
H         21.79139        10.33071         0.76690
H         21.64377        12.73848         0.86033
H         21.77368        14.65506         0.37208
H         21.72442        17.06533         0.15240
H         21.66192        18.98491         0.00315
H         21.66451        21.35485        -0.51126
H         21.88656        22.93811        -1.66121
H         21.99845        25.34703        -1.81455
H         21.90842        26.78739        -0.21890
H         21.65881        28.29127         1.76438
H         21.70621        31.05945         2.65088
H         21.86454        33.52051         2.16261
H         21.44878        35.07623         0.09235
H         21.12168        37.40809        -0.71458
H         19.14568        38.73375        -0.03284
