         630
 CSIRO Nanostructure Databank - Neutral Graphene Oxide Data Set
C         23.03582        27.36147         1.35370
C         23.04264        28.73585         1.33314
C         23.04783        31.65264         0.96470
C         23.04645        33.05606         0.86107
C         23.05994        35.98084         0.99681
C         23.07033        37.36062         1.00752
C         23.06160        40.25666         0.84581
C         23.05539        41.64467         0.77585
C         23.06801        44.55912         1.24110
C         23.11709        45.88574         1.48388
C         25.42340        24.51167         0.92867
C         24.24954        25.21718         1.10532
C         25.48833        27.33785         1.15690
C         24.25071        26.63192         1.21273
C         25.50246        28.78498         1.16753
C         24.25185        29.47604         1.17825
C         25.47401        31.56198         0.56396
C         24.22030        30.89633         0.94584
C         25.46594        33.09853         0.42117
C         24.21390        33.80284         0.71235
C         25.48841        35.94556         0.69623
C         24.25232        35.24222         0.81224
C         25.49821        37.37279         0.72068
C         24.27315        38.08495         0.84681
C         25.49878        40.24297         0.69884
C         24.26922        39.53310         0.80982
C         25.48401        41.67066         0.67363
C         24.25083        42.36760         0.71282
C         25.52382        44.54453         0.77777
C         24.20160        43.86566         0.52215
C         25.54130        45.94820         0.95884
C         24.32423        46.65353         1.23811
C         25.53965        48.75817         1.18650
C         24.34849        48.04307         1.36352
C         27.97943        23.03739         0.79035
C         27.94109        24.44806         0.74996
C         26.67522        25.18144         0.88312
C         27.97233        27.28692         1.08751
C         26.67881        26.58548         0.99867
C         28.00444        28.77234         1.25230
C         26.73379        29.51602         1.12869
C         27.95633        31.66798         0.74590
C         26.76143        30.90473         0.84990
C         27.95959        33.08321         0.52978
C         26.74280        33.81754         0.52954
C         27.97086        35.94578         0.52421
C         26.73486        35.22847         0.58680
C         27.96801        37.37764         0.52330
C         26.73932        38.09248         0.61009
C         27.96747        40.23260         0.46983
C         26.74155        39.52271         0.59687
C         27.95143        41.68105         0.47636
C         26.73151        42.38902         0.59423
C         27.97704        44.53642         0.67592
C         26.73375        43.82565         0.66984
C         27.99534        45.95657         0.74984
C         26.77422        46.67112         0.89816
C         28.00553        48.82916         0.77557
C         26.75881        48.10057         0.95796
C         28.01983        50.23171         0.62172
C         30.39381        23.02538         0.40384
C         29.17008        22.35117         0.61913
C         30.38636        24.45080         0.35575
C         29.16326        25.13392         0.53657
C         30.40103        27.38233         0.20170
C         29.13830        26.60936         0.44790
C         30.48704        28.81131         0.55420
C         29.30428        29.49973         1.06147
C         30.48372        31.69045         0.45534
C         29.26417        31.01703         0.92134
C         30.44760        33.10361         0.32760
C         29.20380        33.80524         0.43953
C         30.43942        35.94912         0.32149
C         29.19828        35.22889         0.41752
C         30.44208        37.37387         0.35824
C         29.20510        38.08923         0.44073
C         30.45723        40.20649         0.32964
C         29.20579        39.51511         0.40533
C         30.45051        41.68744         0.02840
C         29.17407        42.40505         0.40521
C         30.44939        44.53211         0.47396
C         29.19625        43.80068         0.53240
C         30.44111        45.95681         0.57113
C         29.24621        46.67376         0.70793
C         30.45306        48.85316         0.58834
C         29.24097        48.12367         0.71933
C         30.44585        50.25443         0.40975
C         29.20228        50.92469         0.41700
C         32.92904        20.19639         0.13435
C         31.71906        20.90408         0.33710
C         32.88651        23.05937         0.19262
C         31.63983        22.28798         0.29651
C         32.80836        24.49453        -0.11159
C         31.62062        25.19588         0.08574
C         32.86065        27.35587        -0.09926
C         31.65102        26.63097         0.04023
C         32.87571        28.79410        -0.02863
C         31.67527        29.51284         0.31410
C         32.89669        31.66676         0.01261
C         31.68423        30.96486         0.30504
C         32.89357        33.09567         0.00030
C         31.67405        33.81331         0.15763
C         32.90302        35.95890         0.12471
C         31.66750        35.24363         0.18231
C         32.90171        37.36572         0.25186
C         31.68696        38.08196         0.34344
C         32.94549        40.25989         0.28699
C         31.67711        39.52661         0.36157
C         32.94274        41.66677         0.28779
C         31.66122        42.37130         0.64174
C         32.89222        44.53724         0.11522
C         31.66729        43.85035         0.37182
C         32.95303        45.94252         0.20135
C         31.74208        46.63952         0.65351
C         32.98176        48.84072         0.26775
C         31.74621        48.15525         0.68212
C         32.94424        50.25026         0.14433
C         31.70887        50.97393         0.25671
C         32.96148        53.06549         0.09704
C         31.75027        52.36917         0.21035
C         35.41143        18.69517        -0.41231
C         35.36966        20.11290        -0.39845
C         34.13584        20.82725        -0.12934
C         35.37592        22.98329        -0.59167
C         34.19524        22.29506        -0.03535
C         35.29418        24.43450        -0.89427
C         33.99406        25.20163        -0.61134
C         35.27795        27.34652        -0.60817
C         34.06909        26.65783        -0.42043
C         35.29572        28.78121        -0.52720
C         34.08548        29.50382        -0.26836
C         35.31360        31.64754        -0.52256
C         34.10225        30.94092        -0.24376
C         35.32998        33.09808        -0.46879
C         34.12212        33.81827        -0.17820
C         35.36682        35.95387        -0.23143
C         34.13482        35.23258        -0.07532
C         35.40378        37.36807        -0.12410
C         34.21105        38.08123         0.45151
C         35.39336        40.23096        -0.06661
C         34.17867        39.55393         0.13813
C         35.45287        41.71929         0.19391
C         34.12669        42.41522         0.04634
C         35.23339        44.52750        -0.80021
C         34.09224        43.79380        -0.14346
C         35.35327        45.98282        -0.39923
C         34.17761        46.66562        -0.00021
C         35.39334        48.80904        -0.22154
C         34.17556        48.10653         0.05865
C         35.37906        50.23036        -0.14689
C         34.17858        50.96001        -0.01320
C         35.45325        53.12431        -0.02946
C         34.18227        52.39741        -0.00037
C         35.48150        54.55456        -0.07164
C         37.83763        18.71085        -0.68122
C         36.60384        18.01935        -0.55798
C         37.82367        20.13288        -0.71151
C         36.58003        20.82892        -0.58928
C         37.78621        22.96319        -1.14410
C         36.54050        22.26873        -0.75057
C         37.77855        24.47177        -1.18853
C         36.52973        25.22278        -0.94628
C         37.73447        27.36888        -1.01699
C         36.51195        26.62123        -0.87236
C         37.74417        28.76593        -0.95973
C         36.50848        29.49365        -0.73750
C         37.73373        31.62286        -1.16393
C         36.49855        30.91141        -0.77973
C         37.74952        33.12839        -1.09208
C         36.52454        33.82406        -0.66261
C         37.80087        35.95186        -0.68164
C         36.56525        35.23685        -0.52635
C         37.81021        37.36745        -0.62520
C         36.59603        38.08581        -0.36050
C         37.81786        40.26411        -0.58363
C         36.60394        39.53167        -0.31229
C         37.81682        41.68115        -0.67453
C         36.59504        42.43717        -0.47338
C         37.67929        44.41004        -1.53561
C         36.53741        43.77161        -0.77031
C         37.57603        45.98739        -1.64006
C         36.54058        46.68825        -0.74324
C         37.65529        48.93197        -1.31499
C         36.56471        48.08964        -0.64757
C         37.88673        50.22370        -0.53239
C         36.65854        50.95244        -0.05855
C         37.97358        53.12988         0.15870
C         36.65255        52.42072         0.01791
C         37.92113        54.62467        -0.06144
C         36.67926        55.26420        -0.10800
C         40.33577        15.89773        -0.84226
C         39.13831        16.57504        -0.80176
C         40.31253        18.72492        -0.77375
C         39.09296        17.99767        -0.75953
C         40.30590        20.16093        -0.77944
C         39.06993        20.85798        -0.80232
C         40.27608        23.00789        -0.86968
C         39.07720        22.27863        -0.91361
C         40.25941        24.46762        -0.86944
C         39.05140        25.16635        -1.01777
C         40.19992        27.35215        -0.82893
C         39.00992        26.62367        -1.38206
C         40.25111        28.78820        -1.21061
C         38.98281        29.52212        -1.09373
C         40.27521        31.64546        -1.05397
C         39.02444        30.90449        -1.10810
C         40.26280        33.08795        -0.98746
C         39.04834        33.81636        -0.95248
C         40.27357        35.93289        -0.88970
C         39.03562        35.22277        -0.83263
C         40.23159        37.36625        -0.98824
C         39.03823        38.08846        -0.83698
C         40.22419        40.27147        -1.04579
C         39.03524        39.54356        -0.84691
C         40.25103        41.69515        -0.99775
C         39.02183        42.41267        -0.92372
C         40.22738        44.54011        -1.18415
C         39.01407        43.82599        -1.11923
C         40.25078        45.97668        -1.34884
C         38.97098        46.69130        -1.66166
C         40.28206        48.93976        -1.43007
C         38.97454        48.19932        -1.60410
C         40.29244        50.37241        -1.04886
C         39.11689        51.01245        -0.78409
C         40.34366        53.25171        -0.83671
C         39.05941        52.48371        -0.68658
C         40.38191        54.65187        -0.36572
C         39.17366        55.34181        -0.09912
C         40.43911        57.41491         0.16407
C         39.23675        56.74578         0.15705
C         42.81187        15.91530        -0.84977
C         41.56837        16.60410        -0.82972
C         42.79314        18.74609        -0.77501
C         41.55826        18.02681        -0.79642
C         42.78283        20.18185        -0.75683
C         41.54016        20.88514        -0.78878
C         42.76429        23.03299        -0.77704
C         41.53471        22.31619        -0.80319
C         42.74700        24.48626        -0.66631
C         41.49025        25.16488        -0.66960
C         42.71996        27.39850        -0.46532
C         41.45942        26.62877        -0.51556
C         42.75439        28.75967        -0.63555
C         41.55603        29.51542        -1.08342
C         42.74983        31.67116        -0.74987
C         41.50998        30.97741        -0.93130
C         42.75967        33.08034        -0.81131
C         41.51068        33.79723        -0.90728
C         42.78007        35.97680        -0.74905
C         41.49306        35.21067        -0.91031
C         42.73928        37.31637        -1.46471
C         41.43951        38.06068        -1.44660
C         42.74565        40.28167        -1.32377
C         41.45336        39.57668        -1.46497
C         42.72818        41.68721        -1.13122
C         41.48117        42.41057        -1.09428
C         42.71814        44.54635        -1.03130
C         41.47568        43.82868        -1.08486
C         42.70697        45.97124        -1.00647
C         41.46010        46.66530        -1.20892
C         42.70400        48.85225        -0.60046
C         41.54462        48.15053        -1.29492
C         42.77481        50.33594        -0.90150
C         41.57204        51.07470        -1.00708
C         42.82862        53.17516        -0.76463
C         41.60136        52.48838        -0.91392
C         42.85307        54.60585        -0.55995
C         41.62798        55.32320        -0.33719
C         42.91259        57.39586        -0.05973
C         41.66049        56.72431        -0.07161
C         43.99786        16.61063        -0.81707
C         45.26371        18.76605        -0.70182
C         44.02193        18.03508        -0.77075
C         45.25192        20.19233        -0.65148
C         44.00883        20.90026        -0.70216
C         45.24548        23.04174        -0.63303
C         44.00543        22.33341        -0.70915
C         45.24265        24.53225        -0.88047
C         43.94175        25.19813        -0.52572
C         45.20297        27.38483        -0.21583
C         43.92604        26.61834        -0.01176
C         45.18208        28.77764        -0.18944
C         43.97381        29.51979        -0.42122
C         45.23483        31.65708        -0.44454
C         43.97928        30.92562        -0.53254
C         45.27427        33.06663        -0.72031
C         44.02473        33.79933        -0.87632
C         45.27971        35.88543        -1.34582
C         44.02681        35.17811        -1.03052
C         45.31305        37.39236        -1.31373
C         44.00800        38.10671        -1.49364
C         45.13332        40.23421        -0.82321
C         43.95755        39.56595        -1.24773
C         45.14930        41.63507        -0.84348
C         43.95936        42.38837        -1.03058
C         45.16930        44.55509        -0.84273
C         43.95598        43.83214        -0.98316
C         45.15339        45.95403        -0.72921
C         43.94389        46.68773        -0.84649
C         45.22378        48.83080        -0.78129
C         44.00649        48.12382        -0.79113
C         45.25621        50.27546        -0.79993
C         44.01501        51.01257        -0.84254
C         45.29828        53.13615        -0.75781
C         44.04700        52.44087        -0.80463
C         45.32196        54.55879        -0.67267
C         44.08334        55.29640        -0.51808
C         44.08184        56.70413        -0.28038
C         47.69415        18.79382        -0.55455
C         46.51041        18.09583        -0.66880
C         47.71098        20.20803        -0.47044
C         46.47985        20.91516        -0.53967
C         47.71805        23.06993        -0.33733
C         46.46725        22.35630        -0.51611
C         47.72131        24.52960        -0.29478
C         46.47900        25.25586        -0.39828
C         47.67471        27.42309        -0.36371
C         46.43261        26.64620        -0.26499
C         47.69160        28.84008        -0.01663
C         46.39556        29.53829         0.27274
C         47.67296        31.67316        -0.05143
C         46.42906        30.98403        -0.14268
C         47.71031        33.07765        -0.29074
C         46.51240        33.74495        -0.67939
C         47.88113        35.96267        -0.97389
C         46.59320        35.14150        -1.14683
C         47.61325        37.26431        -0.15486
C         46.49648        38.10379        -0.76043
C         47.53965        40.27200         0.23753
C         46.23490        39.45234        -0.11438
C         47.67174        41.62034        -0.44911
C         46.45885        42.30986        -0.86918
C         47.70846        44.49135        -0.51916
C         46.46376        43.84211        -0.90282
C         47.69245        45.93200        -0.24489
C         46.39726        46.68646        -0.40363
C         47.70931        48.78646        -0.70569
C         46.47628        48.12970        -0.67819
C         47.74024        50.23073        -0.81178
C         46.49031        50.95794        -0.79820
C         47.76072        53.08881        -0.80792
C         46.52027        52.39721        -0.79774
C         47.75388        54.50170        -0.77998
C         46.57185        55.21533        -0.70185
C         50.18853        20.25866        -0.18908
C         48.94868        20.93193        -0.28094
C         50.16194        23.05365         0.31594
C         48.91577        22.35685        -0.18731
C         50.19521        24.52848         0.00893
C         48.94077        25.21275        -0.13662
C         50.17679        27.42016         0.11234
C         49.00074        26.66734        -0.33451
C         50.12995        28.77967         0.27196
C         48.88460        29.51329         0.15491
C         50.10309        31.66724         0.40257
C         48.88927        30.96532         0.22927
C         50.12144        33.09486         0.27549
C         48.94655        33.79050        -0.12328
C         50.16876        35.91007        -0.01045
C         49.01585        35.20212        -0.32278
C         50.21222        37.40174        -0.25043
C         48.87611        38.09640        -0.04278
C         50.05094        40.22503         0.20080
C         48.82959        39.46411         0.07721
C         50.08675        41.61558        -0.00489
C         48.87314        42.32045        -0.38932
C         50.13613        44.48872        -0.21387
C         48.89909        43.77141        -0.43608
C         50.16402        45.91430        -0.30780
C         48.95910        46.66099        -0.39313
C         50.22354        48.72251        -0.70026
C         48.96590        48.05345        -0.58526
C         50.23919        50.15225        -1.17669
C         48.96203        50.91143        -0.88175
C         50.24744        52.99192        -0.83165
C         49.00562        52.34228        -0.86153
C         51.40510        20.93476        -0.07043
C         52.69865        23.04111         0.05819
C         51.46474        22.32811         0.05490
C         52.66476        24.50016        -0.18710
C         51.38543        25.21680        -0.01082
C         52.64417        27.45704        -0.15835
C         51.45235        26.66601         0.40035
C         52.62105        28.90196         0.22007
C         51.32992        29.47742         0.89162
C         52.51909        31.67801         0.85143
C         51.33266        30.98066         0.69304
C         52.54638        33.10994         0.79986
C         51.33659        33.80729         0.51094
C         52.53975        35.93886         0.77491
C         51.35172        35.22975         0.43524
C         52.47762        37.38469         0.81501
C         51.31923        38.05745         0.51615
C         52.53697        40.19142         0.44434
C         51.22536        39.52710         0.83495
C         52.45885        41.66427         0.74844
C         51.27996        42.36862         0.23144
C         52.59055        44.49227         0.18009
C         51.33162        43.77614         0.08298
C         52.60884        45.87886        -0.11557
C         51.41156        46.61255        -0.29539
C         52.71134        48.74141        -0.54104
C         51.43075        48.03229        -0.51991
C         52.74089        50.15626        -0.68719
C         51.50298        50.89689        -0.81498
C         51.46156        52.27799        -0.75442
C         55.15747        23.15763         0.14527
C         53.96048        22.42853         0.12662
C         55.21528        24.55619         0.03215
C         53.96246        25.27200        -0.30201
C         55.14545        27.45116         0.35960
C         54.01154        26.80331        -0.41240
C         55.08480        28.85795         0.64699
C         53.87465        29.57699         0.53221
C         55.04615        31.72717         1.02627
C         53.78197        30.92909         1.19931
C         55.01258        33.12767         1.11471
C         53.75503        33.83062         1.03367
C         54.94587        35.97309         1.50974
C         53.74610        35.25472         1.10712
C         54.81208        37.39799         1.68860
C         53.66713        38.11559         1.22887
C         54.94008        40.23012         1.26008
C         53.72405        39.50661         1.08044
C         55.00583        41.64443         1.07030
C         53.75103        42.40886         0.95090
C         55.03892        44.47352         0.68492
C         53.79701        43.82174         0.56008
C         55.15902        45.85500         0.18302
C         53.89337        46.56891        -0.28845
C         55.18305        48.70544        -0.34904
C         53.92795        48.03742        -0.37792
C         55.18154        50.10644        -0.53792
C         53.99748        50.80702        -0.69873
C         57.67903        24.65052         0.31741
C         56.41542        25.30448         0.25279
C         57.57162        27.43093         0.77551
C         56.36834        26.73613         0.46657
C         57.55851        28.86336         1.24681
C         56.28088        29.59370         0.96355
C         57.51009        31.75192         0.93523
C         56.27517        31.00759         1.01024
C         57.47982        33.17483         0.98250
C         56.23462        33.87615         1.19232
C         57.52096        35.92014         1.56141
C         56.21347        35.26865         1.49532
C         57.74001        37.17321         2.16330
C         55.86272        38.22548         2.17999
C         57.46363        40.15836         1.56070
C         56.07521        39.54900         1.79410
C         57.44627        41.68166         1.59222
C         56.21294        42.36184         1.26893
C         57.39647        44.53438         1.52362
C         56.18951        43.78343         1.15207
C         57.45233        46.06638         1.19979
C         56.33059        46.67700         0.48186
C         57.68652        48.65864         0.11424
C         56.40862        47.99601         0.03783
C         58.84500        25.35472         0.51025
C         60.02811        27.51475         0.81409
C         58.81609        26.76324         0.73102
C         60.00556        28.90530         0.78112
C         58.80060        29.62953         0.85065
C         59.90895        31.82459         0.45845
C         58.74866        31.05794         0.75040
C         59.87151        33.20476         0.44572
C         58.68374        33.90736         0.75895
C         59.81581        36.15843         0.75384
C         58.68324        35.33580         0.97588
C         59.84002        37.50771         1.10938
C         58.79611        38.04531         1.88544
C         59.91138        40.30561         2.12108
C         58.65048        39.50721         2.34874
C         59.88884        41.62780         1.87336
C         58.64772        42.38182         1.70624
C         59.84254        44.59141         1.78431
C         58.67285        43.82917         1.67066
C         59.89278        45.97158         1.50914
C         58.76958        46.69073         1.09025
C         58.82010        48.01304         0.55068
O         39.37680        53.11014        -1.95957
O         37.57316        50.21131         0.88512
O         46.61937        43.04384        -2.13158
O         41.23368        38.80414        -2.69116
O         52.83070        42.09208         2.08573
O         46.00582        35.30545        -2.47674
O         37.71344        23.64981        -2.44391
O         43.40983        37.52840        -2.72094
O         53.29773        24.76253        -1.51657
O         56.75681        37.61124         3.06588
O         28.15315        27.86974         2.41991
O         54.78924        45.91792        -1.25011
O         40.48342        27.07900         0.56283
O         29.40326        27.12147        -0.90581
O         34.35130        24.74849        -1.98186
O         52.32549        28.47009        -1.14965
O         46.34008        38.00127        -2.19411
O         51.35252        29.14819         2.24863
O         48.42069        27.11713        -1.60092
O         41.04417        29.06792        -2.40032
O         47.43844        40.69616         1.57786
O         57.13072        45.56059         2.53390
O         46.90746        46.33070         0.94609
O         37.58842        32.43628        -2.38675
O         31.91925        47.38200         1.92320
O         29.52322        30.37052         2.22152
O         25.41251        32.21230        -0.74671
O         41.19004        48.71883        -2.57674
O         39.01388        47.50869        -2.88222
O         33.83827        22.80880         1.30448
O         53.70725        30.62947         2.63474
H         54.49188        30.09247         2.87702
O         48.35486        36.31706        -2.29080
H         47.55782        36.58322        -2.81721
O         30.57675        41.81156        -1.41887
H         29.79928        41.37908        -1.82988
O         46.25510        29.54237         1.75086
H         47.06773        29.95285         2.11939
O         43.79883        26.47272         1.45414
H         43.87660        27.36847         1.84825
O         57.73717        39.81077         0.16436
H         57.06726        40.25632        -0.39671
O         50.27585        50.04490        -2.65615
H         50.30603        50.95981        -3.00948
O         58.40840        39.56158         3.76234
H         57.69691        38.91265         3.97515
O         52.68068        40.08978        -0.99687
H         52.32550        39.21726        -1.28431
O         42.38641        48.74671         0.83086
H         43.15151        49.09172         1.33827
O         34.43197        38.04101         1.92481
H         35.33821        38.38028         2.08962
O         31.51577        42.22926         2.09241
H         32.19290        42.79264         2.52244
O         51.04691        39.65346         2.27269
H         50.08948        39.76342         2.45958
O         51.66881        26.57271         1.83534
H         51.51752        27.49970         2.22175
O         45.32275        24.64985        -2.36116
H         46.23892        24.41853        -2.62692
O         35.74207        41.80792         1.64271
H         35.03376        41.31485         2.11039
O         42.85597        36.37050         0.67124
H         42.83958        35.55328         1.21359
O         34.86698        44.58096        -2.23725
H         35.37538        45.33718        -2.63569
O         47.16920        36.84381         1.15582
H         46.66074        37.60567         1.54299
O         57.61956        28.77566         2.73991
H         58.47053        28.33853         2.96115
O         54.38254        27.08152        -1.78643
H         53.85658        26.46752        -2.34916
O         23.92855        44.05333        -0.91810
H         23.91862        45.02005        -1.08522
O         45.64267        39.10769         1.16980
H         46.08434        39.76811         1.79990
O         50.59933        37.62778        -1.65279
H         49.88776        37.19537        -2.20032
O         37.11302        49.34021        -2.59214
H         37.27441        48.58940        -3.21176
O         36.96944        46.25218        -2.93909
H         37.49679        45.74737        -3.60270
O         38.43563        52.92344         1.54108
H         37.66818        53.04421         2.13878
O         39.12565        26.66119        -2.83429
H         38.43684        26.07280        -3.21177
O         37.53291        43.89625        -2.90730
H         36.57820        43.69361        -3.04408
O         50.01584        23.02499         1.78874
H         49.93166        22.08402         2.05321
H         22.08679        26.81266         1.43594
H         22.08545        29.26978         1.39750
H         22.08366        31.16376         1.15793
H         22.08198        33.56531         0.98915
H         22.10074        35.46078         1.11369
H         22.11703        37.88706         1.14076
H         22.09788        39.73505         0.89879
H         22.08971        42.16684         0.75569
H         22.14187        44.00545         1.45082
H         22.24910        46.40901         1.91315
H         25.37682        23.41874         0.83365
H         23.28974        24.68247         1.14871
H         25.50782        49.85275         1.26830
H         23.41935        48.58370         1.59442
H         27.06050        22.46168         0.96156
H         27.07814        50.79635         0.63528
H         29.15113        21.25435         0.66296
H         29.15606        52.01240         0.27610
H         32.87402        19.09934         0.14080
H         30.80887        20.30557         0.47748
H         32.92451        54.16236         0.10347
H         30.82579        52.95549         0.29196
H         34.48575        18.11666        -0.29477
H         34.54243        55.11867        -0.12700
H         36.58525        16.92207        -0.54942
H         36.63263        56.35747        -0.21354
H         40.34901        14.79897        -0.87782
H         38.20634        15.99516        -0.80963
H         40.46860        58.49544         0.36575
H         38.31247        57.29975         0.37132
H         42.81463        14.81643        -0.88397
H         42.93899        58.47756         0.13552
H         44.93849        16.04500        -0.82625
H         45.03128        57.25453        -0.25078
H         48.63227        18.22543        -0.52360
H         46.55367        17.00073        -0.72331
H         48.69749        55.06151        -0.80700
H         46.62465        56.31107        -0.66767
H         50.22474        19.16596        -0.28223
H         50.30015        54.08685        -0.78678
H         52.33252        20.34822        -0.13595
H         52.38288        52.85639        -0.59903
H         56.08336        22.59324         0.32367
H         54.02612        21.34016         0.26563
H         56.12654        50.66542        -0.54217
H         54.04957        51.89445        -0.84318
H         57.73804        23.56663         0.15158
H         57.78015        49.68961        -0.25230
H         59.81430        24.83609         0.49301
H         60.98815        26.98168         0.76947
H         60.96244        29.43696         0.68266
H         60.86247        31.32140         0.25040
H         60.79557        33.75985         0.23555
H         60.69301        35.73782         0.24370
H         60.70308        38.12676         0.82765
H         60.87588        39.80163         2.28455
H         60.84201        42.16878         1.79027
H         60.79491        44.09071         2.00581
H         60.87136        46.47343         1.52232
H         59.79010        48.53034         0.51544
