         240
 CSIRO Nanostructure Databank - Neutral Graphene Oxide Data Set
C        -11.14334         0.49441         0.18370
C         -9.92395         1.28399         0.12364
C         -8.67968         0.56199        -0.10298
C         -7.44520         1.31999        -0.18829
C         -6.24315         0.68625         0.07037
C         -5.07619         1.42984         0.65801
C         -3.74393         0.83001         0.16711
C         -2.56023         1.48751         0.84353
C         -1.23246         0.81594         0.72223
C         -0.09441         1.50567         1.06772
C          1.19430         0.76618         1.19981
C          2.49719         1.46740         1.48509
C          3.84350         0.72400         1.42532
C          5.02352         1.45509         0.81165
C          6.27148         0.71924         0.80957
C          7.54709         1.49164         0.42968
C          8.66445         0.67598        -0.13336
C          9.93874         1.38045        -0.41156
C         11.12446         0.56291        -0.52989
C         -9.91040         2.65639         0.26588
C         -8.74662         3.46728         0.03797
C         -7.49781         2.78486        -0.53974
C         -6.20233         3.50159        -0.16995
C         -5.11086         2.91513         0.41155
C         -4.00006         3.74198         1.07451
C         -2.66344         2.96035         1.14822
C         -1.38440         3.74735         1.26339
C         -0.09648         2.96226         1.38296
C          1.21643         3.70884         1.28762
C          2.52155         2.97960         1.44627
C          3.83724         3.66693         1.13900
C          5.13006         2.91349         0.94113
C          6.31359         3.64927         0.38211
C          7.47236         2.90298         0.07582
C          8.68052         3.52483        -0.43445
C          9.89713         2.73664        -0.60910
C         -8.83473         4.83414         0.25004
C         -7.89193         5.80302        -0.23275
C         -6.09283         4.87645        -0.57303
C         -4.96078         5.66491        -0.34447
C         -3.84716         5.24092         0.59945
C         -2.45829         5.68290         0.11053
C         -1.33216         5.09573         0.62466
C         -0.01424         5.71713         0.47811
C          1.17325         5.09435         0.76013
C          2.46751         5.75681         0.43363
C          3.78756         5.02178         0.52021
C          5.06915         5.78536         0.44158
C          6.29617         5.06256         0.25755
C          7.58427         5.79887        -0.17576
C          8.70697         4.88516        -0.58461
C         -7.66320         7.08156         0.30016
C         -6.63761         7.92845        -0.16128
C         -4.90767         6.98798        -0.78807
C         -3.67694         7.76957        -0.73889
C         -2.38844         6.91889        -0.81425
C         -1.15639         7.80801        -0.58831
C         -0.03188         7.17165         0.19940
C          1.24493         7.94529         0.18236
C          2.51241         7.21265         0.26563
C          3.70887         7.86813         0.06184
C          4.93049         7.17232         0.29687
C          6.49625         7.84375        -1.09629
C          7.27245         6.76371        -1.33161
C         -6.16786         9.06557         0.58367
C         -4.93560         9.66164         0.53053
C         -3.73903         9.19795        -0.18209
C         -2.44497         9.91884         0.00581
C         -1.29109         9.25918        -0.20427
C         -0.10420         9.57389        -1.09329
C          1.25598         9.23353        -0.55300
C          2.41528         9.85165        -0.84211
C          3.78548         9.30564        -0.47099
C          4.65674         9.37488        -1.74217
C          5.83190         8.76249        -2.01401
C        -11.11628        -0.85702         0.23622
C         -9.82256        -1.60524         0.44512
C         -8.64173        -0.80879        -0.03258
C         -7.37181        -1.49118        -0.43966
C         -6.15159        -0.74434         0.04885
C         -4.93126        -1.39780         0.18416
C         -3.70520        -0.67685         0.27733
C         -2.46842        -1.34155         0.23788
C         -1.22134        -0.62649         0.42724
C         -0.01543        -1.32899         0.40102
C          1.27639        -0.55239         0.45799
C          2.52179        -1.34504         0.79248
C          3.71104        -0.71002         0.95114
C          4.96679        -1.44231         0.53478
C          6.28572        -0.76007         0.77041
C          7.44965        -1.45878         0.65560
C          8.65312        -0.79930         0.09531
C          9.92459        -1.54724        -0.01420
C         11.11299        -0.79431        -0.34398
C         -9.80000        -3.02704        -0.05494
C         -8.61445        -3.69187        -0.21957
C         -7.33941        -2.96953        -0.16514
C         -6.15427        -3.61317        -0.04762
C         -4.86874        -2.90535         0.30267
C         -3.63152        -3.44309        -0.39260
C         -2.43411        -2.74346        -0.16987
C         -1.15643        -3.37563        -0.35050
C          0.03100        -2.73069         0.05854
C          1.25442        -3.48701         0.23139
C          2.42530        -2.84780         0.94047
C          3.74228        -3.58025         0.72223
C          4.94960        -2.91052         0.82862
C          6.22187        -3.64118         1.02908
C          7.56420        -2.91254         1.06645
C          8.68767        -3.66112         0.34897
C          9.89643        -2.92096         0.06148
C         -8.55064        -5.12637        -0.41707
C         -7.36389        -5.80434        -0.39599
C         -6.03940        -5.12709        -0.06294
C         -5.03240        -5.48353        -1.19094
C         -3.68300        -4.76050        -1.04543
C         -2.35005        -5.51441        -1.16951
C         -1.09600        -4.75810        -0.84285
C          0.15889        -5.55544        -0.57067
C          1.28942        -4.86270         0.06387
C          2.48581        -5.64942         0.27333
C          3.70068        -4.99245         0.52652
C          4.97117        -5.71165         0.17422
C          6.21550        -5.11495         0.78536
C          7.47012        -5.82668         0.41196
C          8.64389        -5.01968         0.14656
C         -7.29832        -7.21391        -0.69976
C         -6.12959        -7.81420        -1.09629
C         -4.91078        -7.00151        -1.35063
C         -3.57925        -7.72567        -1.32733
C         -2.33464        -6.98161        -1.04368
C         -1.20629        -7.66264        -0.59050
C          0.05195        -7.01702        -0.41568
C          1.23175        -7.74569        -0.13714
C          2.46007        -7.07165         0.06835
C          3.69108        -7.83530         0.19391
C          4.89678        -7.19680         0.36519
C          6.17192        -7.94114         0.69399
C          7.41198        -7.18098         0.27063
C         -6.04175        -9.24039        -1.32863
C         -4.84789        -9.89212        -1.36397
C         -3.59656        -9.19535        -1.11507
C         -2.48666        -9.84605        -0.67865
C         -1.29879        -9.10512        -0.13401
C         -0.00189        -9.85482        -0.28731
C          1.19958        -9.20834        -0.18228
C          2.45526        -9.92960        -0.14714
C          3.65053        -9.28837         0.05161
C          4.92667        -9.99371         0.00765
C          6.10594        -9.37156         0.21962
O         -5.61465        -4.99592        -2.41502
H         -4.98932        -5.23168        -3.13678
O         -3.61493         1.16314        -1.24159
H         -4.30336         0.67300        -1.73981
O         -4.00964         6.11928         1.74943
H         -4.10844         5.53712         2.54461
O          7.24865         1.22776         1.82581
O          4.36384        10.17396         0.52124
H          5.24114         9.79549         0.75552
O          3.06449         5.03131        -0.75475
O          8.11860         6.53179         0.95171
H          7.47105         7.23893         1.17871
O         -4.66319        -3.19296         1.71972
H         -4.92286        -4.16233         1.83272
O          1.50140        -0.12352        -0.94130
H          1.23763        -0.85897        -1.53509
O         -2.77206         1.95216         2.20248
O          4.89651        -1.37461        -0.95161
H          3.99914        -1.65945        -1.22962
O          5.15103        -5.50131        -1.27599
H          4.39642        -5.92712        -1.73677
O          7.99110        -2.85512         2.45689
H          7.59658        -3.64140         2.90355
O         -4.45998         3.82909         2.44550
O         -5.53294        -5.57693         1.17083
O         -7.29898        -1.37491        -1.91108
H         -7.53787        -0.45276        -2.14940
O          4.26469         0.57639         2.81902
H          4.38004         1.48307         3.18672
O         -7.62903         2.80702        -1.99154
H         -7.64662         3.75898        -2.25446
O          2.12827        -3.03447         2.36552
H          2.80129        -2.54454         2.88568
O         -6.45307         1.56411         2.58501
H         -6.89678         0.70434         2.78963
O         -2.31029         6.38225        -2.14874
H         -2.06014         7.12491        -2.74218
O         -5.13971         1.14636         2.12821
H         -4.39972         2.91572         2.82314
O          0.38195         7.94950         1.37821
O         -1.52266        -9.00502         1.32552
H         -1.63839        -9.91552         1.67065
O         -9.65463        -1.69797         1.91672
H        -10.28933        -2.37226         2.23982
O          6.06899         8.00714         0.25740
O          6.23754        -8.00438         2.16270
H          5.42597        -8.45661         2.47662
O          6.09688        -4.62912         2.14243
O         -0.10943        -5.00500        -1.91199
O         -2.97683        -4.87989        -2.32679
O          8.27526        -0.20255        -1.23639
O          1.70298         0.86873         2.55530
O          4.73486         3.51132         2.26962
O          1.91651         3.63610         2.59202
O         -3.79584         8.90853        -1.63909
O         -0.50360         8.32675        -1.85667
O         -4.23908        -7.35223        -2.59455
O         -7.13817         5.39287        -1.37782
O         -0.78925         3.50434         2.56388
O         -6.00683         7.61126        -1.39838
H         12.05277        -1.35603        -0.45628
H         12.07108         1.06405        -0.78187
H         10.81858         3.28168        -0.86507
H          9.64819         5.37848        -0.87124
H          7.61713         6.52799        -2.34814
H          6.29222         8.91532        -3.00308
H          4.25678        10.03160        -2.53307
H          2.40234        10.79366        -1.41431
H         -0.14692        10.49402        -1.71828
H         -2.47038        11.02036         0.01570
H         -4.75938        10.49554         1.22757
H         -6.87696         9.46001         1.32950
H         -8.19470         7.36111         1.22109
H         -9.71738         5.21774         0.78782
H        -10.85114         3.17614         0.50753
H        -12.10513         1.02963         0.15185
H        -12.05782        -1.42734         0.26943
H        -10.74631        -3.59147        -0.06252
H         -9.48930        -5.66775        -0.61829
H         -8.21939        -7.81572        -0.63382
H         -6.97979        -9.81189        -1.39650
H         -4.81911       -10.98792        -1.45579
H         -2.51970       -10.93694        -0.52620
H         -0.03200       -10.95538        -0.31837
H          2.43279       -11.02189        -0.28004
H          4.90540       -11.06366        -0.25129
H          7.04630        -9.94101         0.16585
H          8.30619        -7.74897        -0.02932
H          9.53282        -5.52843        -0.25922
H         10.81465        -3.49282        -0.14822
