         658
 CSIRO Nanostructure Databank - Neutral Graphene Oxide Data Set
C          5.90112        31.79784        -0.49855
C          5.88424        33.15946        -0.50157
C          8.38968        27.52867        -0.44999
C          8.29627        28.86459         0.25750
C          7.09711        29.67383        -0.15297
C          8.31492        31.80101         0.10250
C          7.10252        31.04457        -0.18800
C          8.27996        33.18998         0.08740
C          7.07439        33.92729        -0.21263
C          8.24902        36.10980        -0.00006
C          7.06504        35.32004        -0.18846
C          8.21598        37.50347         0.10048
C         10.83090        23.25526        -0.87119
C         10.80256        24.66706        -0.69297
C          9.61841        25.41382        -0.77670
C         10.78657        27.44715         0.17456
C          9.55672        26.80765        -0.43911
C         10.80574        28.95826         0.06898
C          9.58332        29.65095         0.16367
C         10.78941        31.76344         0.38472
C          9.56708        31.07042         0.25185
C         10.76029        33.20865         0.67350
C          9.47078        33.96347         0.48293
C         10.71338        36.08899         0.09897
C          9.52053        35.41752         0.17988
C         10.67688        37.55633        -0.10953
C          9.41793        38.27467         0.18016
C         10.69927        40.36744         0.58068
C          9.46605        39.65484         0.36240
C         10.71117        41.78306         0.81758
C         13.25038        18.97105        -1.05851
C         13.23297        20.32704        -0.80782
C         12.03350        21.10558        -0.93271
C         13.33938        23.24293        -1.04026
C         12.02726        22.50530        -0.88295
C         13.29043        24.68123        -0.57986
C         12.06395        25.36852        -0.45314
C         13.28080        27.47362        -0.25889
C         12.07189        26.76560        -0.23079
C         13.25259        28.95402        -0.52675
C         12.01740        29.66117        -0.01403
C         13.25725        31.79527         0.11297
C         12.03271        31.07959         0.17776
C         13.31986        33.22534         0.45778
C         12.04995        33.96993         0.72222
C         13.27769        36.11420         0.10531
C         11.99703        35.50172         0.67000
C         13.30738        37.61513        -0.02835
C         11.99025        38.34482        -0.03641
C         13.14400        40.25247         1.11621
C         11.93034        39.68138         0.51886
C         13.09476        41.71502         1.47878
C         11.89007        42.48583         1.09561
C         13.18741        44.61335         1.08889
C         11.98406        43.89306         0.93550
C         13.30816        45.94407         0.66640
C         15.75809        14.54523        -0.88815
C         15.71992        15.97588        -0.91135
C         14.53303        16.68940        -0.96519
C         15.76354        18.88487        -0.68575
C         14.49547        18.16938        -1.03874
C         15.73945        20.32809        -0.35564
C         14.41978        21.02850        -0.16502
C         15.71118        23.16077        -0.30730
C         14.53457        22.50150        -0.48863
C         15.80443        24.64324        -0.62764
C         14.49655        25.37033        -0.43090
C         15.77133        27.50592        -0.17610
C         14.51449        26.77956        -0.29993
C         15.74620        28.94985        -0.20871
C         14.55823        29.65004        -0.25121
C         15.80346        31.90542        -0.25053
C         14.49874        31.12427        -0.29360
C         15.81542        33.30297         0.20354
C         14.57067        34.00493         0.26755
C         15.82023        36.11803         0.16892
C         14.55064        35.38278         0.29122
C         15.81949        37.64040         0.25575
C         14.53247        38.35206         0.37686
C         15.70094        40.35417         1.26653
C         14.47607        39.61788         0.91037
C         15.66880        41.68870         1.66935
C         14.38534        42.42859         1.75206
C         15.67910        44.69814         1.71983
C         14.37774        43.93547         1.66783
C         15.75685        46.02625         1.07341
C         14.54898        46.65309         0.62536
C         15.79003        48.70154        -0.00056
C         14.58190        47.98401         0.13667
C         15.84604        50.04413        -0.38944
C         18.21154        10.24459        -0.61228
C         18.18094        11.66064        -0.58747
C         16.98085        12.39290        -0.74847
C         18.20094        14.52383        -0.47450
C         16.95144        13.81021        -0.74012
C         18.20019        15.89554        -0.38484
C         17.04893        16.72353        -0.90621
C         18.18436        18.83967        -0.04147
C         16.89282        18.04997        -0.11028
C         18.17762        20.20358        -0.12661
C         16.93548        20.98049        -0.20278
C         18.13870        23.12628         0.14867
C         16.96390        22.44042        -0.06047
C         18.13228        24.57139         0.48342
C         16.89135        25.34410         0.16558
C         18.20429        27.47921         0.40850
C         16.96902        26.82209         0.09005
C         18.26777        28.90420         0.26322
C         17.06375        29.63017        -0.20970
C         18.27120        31.83055         0.34479
C         17.09059        31.14779        -0.20366
C         18.25308        33.21560         0.57899
C         17.02970        33.97069         0.44041
C         18.26659        36.09883         0.67081
C         17.06167        35.40031         0.51002
C         18.29582        37.55974         0.76433
C         17.03571        38.30004         0.76537
C         18.22734        40.39230         1.21346
C         16.96347        39.62090         1.16494
C         18.17861        41.82930         1.57808
C         16.92194        42.40866         2.20632
C         18.28808        44.70678         1.98741
C         16.93849        43.96009         2.06860
C         18.22719        46.04946         1.28877
C         17.01491        46.65926         0.92290
C         18.32854        48.81496         0.36518
C         17.05383        47.98069         0.25131
C         18.23536        50.26358         0.21316
C         17.04933        50.82488        -0.32434
C         18.26333        52.93286        -0.77994
C         17.04420        52.18289        -0.73180
C         18.26699        54.25505        -1.24052
C         20.69429         5.96303        -0.58412
C         20.64957         7.35803        -0.56382
C         19.44390         8.09692        -0.52223
C         20.67322        10.24509        -0.44909
C         19.41997         9.51544        -0.53746
C         20.66711        11.65055        -0.34450
C         19.42873        12.37980        -0.40022
C         20.68503        14.48280        -0.16791
C         19.43287        13.77344        -0.29775
C         20.69232        15.87362        -0.02527
C         19.41060        16.58944         0.08198
C         20.75060        18.78447         0.50446
C         19.40237        18.06493         0.33669
C         20.69512        20.14595        -0.12921
C         19.45364        20.92934         0.10394
C         20.66710        23.24970         0.25562
C         19.43082        22.41837         0.25723
C         20.62799        24.56001         0.92810
C         19.38373        25.32548         0.73089
C         20.67480        27.42486         1.02669
C         19.38840        26.71429         0.75106
C         20.68938        28.92909         0.81674
C         19.45793        29.62378         0.39659
C         20.69226        31.76140         0.58014
C         19.49567        31.07312         0.40073
C         20.71453        33.14335         1.17036
C         19.45469        33.93485         0.88257
C         20.76553        36.03811         0.87137
C         19.46853        35.32502         0.86128
C         20.78322        37.52912         0.93846
C         19.49352        38.24211         0.98673
C         20.70995        40.32405         1.47700
C         19.52985        39.67036         1.21967
C         20.77458        41.79483         1.80331
C         19.47677        42.55417         1.66924
C         20.69296        44.64897         1.03090
C         19.48280        43.89718         1.54879
C         20.68952        46.10499         1.38643
C         19.47822        46.76757         1.29896
C         20.71592        49.03574         1.28154
C         19.44873        48.24376         1.17738
C         20.74103        50.25992         0.37238
C         19.43868        51.11608         0.57740
C         20.76276        52.88784        -0.68478
C         19.47488        52.32071        -0.31570
C         20.75729        54.35614        -1.10324
C         19.45537        55.13972        -1.01395
C         20.73734        57.00075        -2.07933
C         19.55457        56.30703        -1.96173
C         20.85379        58.14765        -2.91546
C         23.18330         3.15421        -0.85849
C         21.96068         3.84237        -0.79104
C         23.18116         5.95467        -0.64610
C         21.93008         5.24428        -0.69386
C         23.19051         7.36215        -0.48856
C         21.92671         8.10628        -0.79383
C         23.11192        10.20997        -0.17236
C         21.90992         9.54020        -0.38747
C         23.14764        11.63377        -0.19698
C         21.91091        12.35502        -0.26926
C         23.17755        14.47129        -0.19540
C         21.92858        13.76450        -0.21617
C         23.15832        15.87020        -0.16756
C         21.92253        16.60653        -0.08829
C         23.13291        18.73669        -0.45346
C         21.92225        18.00730        -0.05948
C         23.16686        20.20635        -0.42618
C         21.83581        20.70664        -0.62194
C         23.17543        23.24640         0.05405
C         21.83660        22.82616        -0.30749
C         23.21765        24.56336         0.54695
C         21.98703        25.28140         0.93721
C         23.21715        27.40214         0.81403
C         21.97829        26.73577         0.89426
C         23.27137        28.86852         0.72978
C         21.98874        29.57598         0.48353
C         23.23646        31.80174         0.62287
C         21.97258        31.08169         0.39107
C         23.24888        33.14274         0.87168
C         21.96262        33.92162         0.72529
C         23.27392        36.04906         1.23516
C         21.97115        35.29768         1.40377
C         23.23021        37.49071         1.42506
C         22.03680        38.16728         1.39490
C         23.09384        40.19496         0.51542
C         22.06298        39.66010         1.57869
C         23.05483        41.72977         0.43508
C         21.89656        42.46950         1.00616
C         23.22570        44.57838         1.18661
C         22.00371        43.93245         1.22157
C         23.26996        46.02113         1.58214
C         21.96357        46.79433         1.66676
C         23.29482        49.05205         1.49804
C         21.98475        48.31997         1.67043
C         23.23065        50.50097         1.02884
C         22.00974        51.08193         0.45486
C         23.25565        53.06791        -0.37740
C         22.03368        52.32481        -0.16127
C         23.21124        54.45999        -0.82274
C         22.00788        55.11279        -1.00811
C         23.23086        57.21202        -1.63671
C         21.91727        56.61037        -1.20353
C         23.27996        58.32367        -2.46213
C         22.06714        58.83327        -3.08897
C         23.39572        60.52552        -4.26913
C         22.15606        59.94575        -3.95956
C         24.39349         3.83225        -0.80564
C         25.63509         5.98844        -0.63845
C         24.41927         5.24858        -0.67937
C         25.63621         7.36179        -0.42747
C         24.39497         8.04229        -0.28519
C         25.62879        10.21149         0.09267
C         24.33929         9.45129         0.25921
C         25.62649        11.55105        -0.18771
C         24.39171        12.30981        -0.26202
C         25.65387        14.41664        -0.52569
C         24.43458        13.74005        -0.32112
C         25.71877        15.84629        -0.26977
C         24.42127        16.60100        -0.06451
C         25.67441        18.83242        -0.30568
C         24.44851        18.02633        -0.46542
C         25.61448        20.24665        -0.22309
C         24.34553        20.97517        -0.29014
C         25.61433        23.08088         0.22589
C         24.35917        22.42936        -0.07017
C         25.65813        24.48950         0.50330
C         24.45718        25.24933         0.64567
C         25.71978        27.40781         1.02124
C         24.43395        26.66617         0.79419
C         25.73249        28.79510         0.38128
C         24.44819        29.55243         0.63656
C         25.68952        31.72294         0.99402
C         24.50450        31.03770         0.33823
C         25.70190        33.20871         1.00546
C         24.49276        33.89138         1.01303
C         25.74102        36.04503         1.46760
C         24.44833        35.33241         1.16816
C         25.69802        37.50144         1.10174
C         24.52307        38.29705         1.59352
C         25.61615        40.31141         0.44564
C         24.45040        39.62243         0.84760
C         25.59945        41.73026         0.22458
C         24.32124        42.52846         0.08647
C         25.66235        44.56095         0.64875
C         24.42868        43.89072         0.79086
C         25.89060        45.94986         1.24412
C         24.59069        46.74734         1.52037
C         25.66500        48.87086         0.49706
C         24.58447        48.26660         1.39066
C         25.78215        50.38107         0.55082
C         24.55179        51.18809         0.63876
C         25.73525        53.08555        -0.43175
C         24.49536        52.45912        -0.10908
C         25.72100        54.40535        -1.16203
C         24.45789        55.20293        -0.95053
C         25.71735        57.37908        -1.21496
C         24.45522        56.54798        -1.25455
C         25.74146        58.41915        -2.30117
C         24.56893        58.91104        -2.83709
C         24.57611        60.01594        -3.75261
C         26.93370         8.14624        -0.49950
C         28.14824        10.26821         0.23507
C         26.89521         9.43532         0.37107
C         28.16687        11.57748        -0.16328
C         26.89280        12.21815        -0.58723
C         28.25366        14.41471        -1.07504
C         26.88821        13.69446        -0.90832
C         28.18864        15.93765        -0.89024
C         26.88987        16.67243        -0.67973
C         28.12752        18.81227        -0.31812
C         26.89806        18.12047        -0.34201
C         28.11699        20.22985        -0.12655
C         26.85768        20.95607        -0.05523
C         28.12696        22.99751         0.68657
C         26.84659        22.34094         0.19051
C         28.12765        24.48858         0.49617
C         26.93307        25.19661         0.55582
C         28.18235        27.33454         0.76842
C         26.95340        26.63125         0.63502
C         28.16248        28.80274         0.87642
C         27.00417        29.52757         0.76250
C         28.24513        31.76111         1.07071
C         26.98510        30.97716         1.09887
C         28.23031        33.14469         1.00658
C         26.97204        33.90712         1.05595
C         28.25878        36.07729         1.06804
C         26.98126        35.28333         1.07365
C         28.09138        37.35996         0.27239
C         26.80262        38.14620         0.43721
C         28.07320        40.28763         0.02207
C         26.85206        39.60611         0.28718
C         28.05466        41.71764        -0.07721
C         26.80491        42.43643         0.05050
C         27.94965        44.66369        -0.40601
C         26.80066        43.87034         0.16704
C         28.18691        46.03425         0.20548
C         27.01593        46.75393         0.60846
C         28.22787        48.90904         0.51673
C         26.98223        48.14452         0.59463
C         28.21417        50.33003         0.16127
C         26.96352        51.02538         0.16067
C         28.20215        53.11166        -0.48428
C         26.94441        52.42719        -0.22317
C         28.19924        54.48786        -0.78878
C         26.98889        55.20694        -0.99409
C         26.97686        56.57032        -1.13716
C         29.34498        12.40283        -0.02075
C         30.55969        14.53708        -0.09728
C         29.38452        13.76329        -0.29994
C         30.60564        15.93999        -0.25849
C         29.40905        16.67415        -0.53365
C         30.60529        18.79040        -0.23517
C         29.37324        18.07498        -0.37346
C         30.57224        20.20301        -0.23357
C         29.35761        20.92331        -0.11594
C         30.57230        23.05906         0.09251
C         29.39634        22.35861         0.15048
C         30.66513        24.43308         0.73511
C         29.42206        25.22643         0.30013
C         30.60719        27.27845         1.30976
C         29.37864        26.61086         0.87821
C         30.45518        28.71610         1.57711
C         29.40164        29.49239         1.19315
C         30.79406        31.72147         1.14044
C         29.50676        30.96529         0.79627
C         30.75015        33.19445         0.92853
C         29.46056        33.90204         0.84043
C         30.69315        35.98979         0.37155
C         29.47808        35.27999         0.67644
C         30.62751        37.37603        -0.16419
C         29.33186        38.12015        -0.12380
C         30.55665        40.30708        -0.07130
C         29.31983        39.59959        -0.09165
C         30.51307        41.73985        -0.11812
C         29.28456        42.40797        -0.24781
C         30.54763        44.57547        -0.79975
C         29.24524        43.85660        -0.60259
C         30.57354        46.03146        -0.52898
C         29.41188        46.69260        -0.05651
C         30.70334        48.87974        -0.24349
C         29.53727        48.12746         0.26782
C         30.65208        50.27803        -0.29716
C         29.43163        51.00024        -0.14760
C         29.40894        52.39435        -0.41040
C         31.81669        16.68359        -0.05290
C         33.15620        18.78640         0.15481
C         31.84160        18.06211        -0.10093
C         33.15858        20.22882        -0.33812
C         31.83064        20.92862        -0.50157
C         33.08138        23.17600        -0.42679
C         31.78886        22.42363        -0.46155
C         33.06672        24.59956         0.00708
C         31.94462        25.23389         0.43432
C         33.17952        27.51845         0.50524
C         31.99572        26.67166         0.89957
C         33.31212        28.90146         0.61360
C         32.34236        29.79317         1.22755
C         33.11411        31.77005        -0.04665
C         32.09157        31.05298         0.79631
C         33.16863        33.24034         0.30975
C         31.98431        33.91946         0.56127
C         33.17522        36.07746         0.23802
C         31.93600        35.34150         0.40076
C         33.16333        37.46207         0.06868
C         31.91692        38.16153        -0.41712
C         33.05779        40.34396        -0.00197
C         31.82130        39.62497        -0.03494
C         33.06126        41.75390         0.00142
C         31.77760        42.54540         0.10221
C         33.09002        44.60010        -0.46818
C         31.86560        43.77790        -0.82014
C         33.04912        45.99995        -0.57838
C         31.83076        46.72589        -0.58987
C         31.85590        48.14423        -0.56536
C         34.36534        21.05733        -0.14135
C         35.57562        23.19988        -0.19326
C         34.36751        22.43671        -0.27048
C         35.60687        24.60498        -0.30466
C         34.31003        25.33284        -0.33389
C         35.64030        27.47510        -0.22440
C         34.31896        26.81797        -0.16465
C         35.60959        28.91804        -0.39617
C         34.42775        29.64057         0.04274
C         35.68235        31.74552        -0.01596
C         34.43378        31.03350        -0.00723
C         35.65055        33.19659         0.31744
C         34.39783        33.95626         0.25841
C         35.67339        36.08976         0.17372
C         34.42462        35.36010         0.30023
C         35.63340        37.53755         0.09246
C         34.38355        38.21082         0.04592
C         35.54497        40.36988        -0.01913
C         34.32283        39.63778        -0.01128
C         35.51155        41.78341        -0.05288
C         34.28770        42.47835        -0.06829
C         34.26471        43.91247        -0.18015
C         36.80948        25.33824        -0.33820
C         38.10029        27.51037        -0.41765
C         36.84251        26.77141        -0.36352
C         38.18141        28.88990        -0.40243
C         36.94061        29.68625        -0.49785
C         38.19659        31.77026         0.26618
C         36.89796        31.08403        -0.09004
C         38.15450        33.21131        -0.29399
C         36.94584        33.96746         0.23458
C         38.14492        36.11447        -0.39823
C         36.88103        35.41276         0.03859
C         38.18448        37.55202         0.15298
C         36.85199        38.28277         0.04886
C         36.79109        39.66540         0.00328
C         39.41461        29.65689        -0.37536
C         40.64447        31.80785        -0.16335
C         39.42951        31.01980        -0.19239
C         40.65085        33.16834        -0.01629
C         39.43805        33.96960        -0.04917
C         39.40575        35.33048        -0.04632
O         19.73753        49.04794         2.37144
O         23.93140        51.35910         1.96770
O         36.14638        29.38248        -1.68085
O         15.45765        18.67662        -2.10569
O         32.33929        23.02092        -1.68496
O         22.05298         8.18219        -2.36376
O         21.99443        30.22671        -0.83673
O         15.99283        36.96210        -1.02702
O         23.74591        18.22473        -1.72817
O         20.80204        53.30830        -2.11590
O         31.52326        26.67442         2.30081
O         24.23724        48.93619         2.61006
O         27.15415        37.31825        -0.78971
O         29.74788        44.14000        -1.97091
O         21.91307        42.11591        -0.43540
O         27.41405        16.47502        -2.02980
O         30.82701        32.54937         2.32263
O         25.25876        16.25574         1.07786
O         17.34828        30.39939        -1.43247
O         24.05326        46.27623         2.79266
O         14.17191        43.26001         2.94834
O         19.45162        21.53191         1.46308
O         18.01749        48.04828        -0.84711
O         20.99039        36.79754        -0.34132
O         26.75271        12.68954        -1.96723
O         11.29869        38.12513        -1.30729
O         20.63044        28.36929         2.16411
O         21.86924        47.59308         2.90333
O         16.18016        44.64478         3.11623
O         36.42122        33.53597         1.54367
O         31.53678        29.28139         2.24428
O         13.33259        36.74119        -1.20655
O         34.05154        26.19907        -1.49503
O         21.34449        24.73166         2.17271
O         21.72186        21.89655        -1.34116
O          9.93544        33.60230         1.83784
O         15.08693        31.73750        -1.52131
O         12.83262        33.48887         1.86288
O         17.08476        24.84593         1.51701
O         19.15922        17.17292         1.49263
O         26.10416        31.19134         2.28825
O         29.78540        37.48124        -1.38366
O         29.15877        48.53663         1.60102
O         18.07136        41.45746         0.15919
O         32.54493        20.38470        -1.66369
O          8.12216        28.52663         1.67953
H          8.95807        28.07453         1.95856
O         39.22435        38.22807        -0.55599
H         39.29994        39.14338        -0.21881
O         13.59138        23.32222        -2.49512
H         12.81040        23.75404        -2.90363
O         16.98729        42.11579         3.61602
H         16.27156        42.64126         4.04244
O         34.24468        18.07384        -0.44128
H         34.14955        18.14700        -1.41392
O         28.66739        14.23268        -2.44893
H         28.05810        14.76414        -3.00778
O         29.58561        30.88261        -0.67169
H         28.78739        30.41181        -0.99523
O         20.81167        32.91311         2.61080
H         20.00328        32.43705         2.89511
O         26.47448        45.65448         2.54947
H         25.73343        45.65004         3.20230
O         12.88642        40.69298         2.50425
O         24.23895        42.84382        -1.33457
H         23.28459        42.97513        -1.54024
O         13.10628        29.03880        -2.00249
H         13.57692        29.84570        -2.30747
O         38.10831        36.18086        -1.85380
H         38.71589        36.91299        -2.10519
O         25.80365        27.62739         2.46336
H         25.81925        26.75323         2.90679
O         20.91132         8.87369        -2.88110
H         20.29545         8.14454        -3.13751
O         19.35895        51.60092         1.93731
H         19.33218        50.81668         2.53741
O         38.34533        31.79349         1.70611
H         37.60350        32.33651         2.07343
O         37.98283        33.11277        -1.72807
H         38.03825        34.02491        -2.09737
O         21.83296        34.18224        -0.68927
H         21.79137        33.32700        -1.16635
O         19.33549        55.65261         0.34960
H         20.11794        56.24031         0.51561
O         20.50004        44.63938        -0.43421
H         20.63366        43.71567        -0.74813
O         21.78153        35.20599         2.83181
H         22.43327        34.57226         3.19864
O         18.65783        45.01897         3.36988
H         17.82472        45.28332         3.82763
O         11.98839        35.95870         2.05504
H         11.46015        35.31324         2.57671
O         21.00967        18.94411         1.92371
H         20.50595        18.23219         2.38352
O         28.10129        22.78164         2.14214
H         28.22569        21.82208         2.30001
O         29.59322        25.40686        -1.15247
H         28.78697        25.84356        -1.50139
O         21.09806        41.92398         3.22035
H         20.88430        42.83921         3.50386
O         14.12768        20.94427         1.27479
H         14.89635        21.31512         1.75938
O         26.86688         8.99342         1.75736
H         25.92036         8.83297         2.00035
O         31.68208        43.07973         1.45910
H         31.69242        42.32719         2.08688
O         25.13392        48.58853        -0.86022
H         25.84819        48.75457        -1.51220
O         30.62466        24.17717         2.15451
H         30.85317        25.02181         2.61699
O         24.75350        38.57738         3.01475
H         24.90116        37.70175         3.44645
O         32.69333        31.76810        -1.44782
H         32.78785        30.85663        -1.79704
O         24.70262        31.13672        -1.11697
H         23.83830        30.88044        -1.52233
O         25.78278        28.60191        -1.06273
H         25.57481        29.47766        -1.47329
O         21.63058        57.18135         0.13406
H         21.48919        58.14512         0.01659
O         10.65929        27.19542         1.62701
H         10.66721        26.22232         1.75633
O         25.68323        54.05091        -2.59320
H         24.83570        53.58580        -2.76052
O         16.15585        24.75220        -2.03385
H         15.42971        24.31197        -2.53785
O         27.42867        45.01282        -1.73453
H         28.16893        44.88103        -2.37603
O         22.65075        40.00709         2.84174
H         21.99395        39.87080         3.55492
O         25.65865        58.13186         0.05685
H         24.83963        58.67114         0.03871
O         22.73780        39.67902        -0.77687
H         22.07867        40.29353        -1.17246
O         32.13285        38.20701        -1.86645
H         31.23832        38.12579        -2.28049
O         24.15355         9.25406         1.72705
H         24.00466        10.14000         2.12296
O         25.81770        36.06866         2.96585
H         26.74478        36.34744         3.17774
O         28.51798        36.52158         2.45556
H         28.93205        35.77058         2.93515
O         16.50082        17.71890         1.24115
H         17.31419        17.39786         1.70589
O         27.14388         8.49445        -1.86890
H         27.86058         9.16150        -1.91459
O         20.68906        49.71120        -0.97283
H         20.61062        50.45203        -1.61210
O         17.44881        17.01745        -2.26656
H         16.73528        17.58040        -2.66239
O         32.11059        43.31409        -2.15930
H         31.24072        43.28116        -2.62324
H          4.98240        31.23472        -0.72024
H          4.95401        33.70146        -0.72704
H          7.45747        27.05443        -0.79668
H          6.15861        29.13297        -0.35229
H          6.11433        35.84716        -0.36058
H          7.24545        38.02230         0.11079
H          9.87139        22.71799        -0.93403
H          8.68515        24.90615        -1.06547
H          8.52395        40.21624         0.45568
H          9.78078        42.34715         0.65277
H         12.32628        18.47874        -1.40275
H         11.07552        20.57445        -1.05725
H         11.09922        44.43331         0.56569
H         12.41528        46.44885         0.26768
H         14.80759        13.99540        -0.97829
H         13.57464        16.14622        -0.97145
H         13.63367        48.47636        -0.12548
H         14.91352        50.55705        -0.66875
H         17.26327         9.69428        -0.71248
H         16.04080        11.84228        -0.90744
H         16.11230        52.64646        -1.08398
H         17.32098        54.71250        -1.56864
H         19.75646         5.39000        -0.51473
H         18.48779         7.55088        -0.48913
H         18.67163        56.62306        -2.53881
H         19.97083        58.47187        -3.48677
H         23.17764         2.05861        -0.94700
H         21.01601         3.28009        -0.81668
H         23.42977        61.38263        -4.95646
H         21.23865        60.33355        -4.42451
H         25.34137         3.27728        -0.85368
H         26.58915         5.45453        -0.76248
H         26.70217        58.88595        -2.56568
H         25.54048        60.46798        -4.02457
H         27.78563         7.50036        -0.13548
H         29.07421         9.81494         0.62372
H         29.15735        55.02735        -0.83949
H         27.92369        57.12851        -1.06306
H         30.23817        11.93067         0.41880
H         31.46911        14.02327         0.25134
H         31.55383        50.83297        -0.59516
H         30.35509        52.91203        -0.62683
H         32.75376        16.13571         0.12525
H         33.34498        18.79046         1.26443
H         33.98904        46.56717        -0.49122
H         32.79919        48.66991        -0.77225
H         35.31100        20.53432         0.06937
H         36.52807        22.65466        -0.10574
H         36.45558        42.34653        -0.09617
H         35.20685        44.46880        -0.05734
H         37.76211        24.78742        -0.35574
H         39.03071        26.92166        -0.40702
H         38.45784        37.50223         1.25161
H         37.71690        40.26160        -0.01505
H         40.36235        29.12173        -0.54778
H         41.60546        31.27565        -0.24363
H         41.61326        33.70000         0.04126
H         40.34358        35.90215         0.04323
