         410
 CSIRO Nanostructure Databank - Neutral Graphene Oxide Data Set
C         27.94316        27.46550        -0.99952
C         27.96232        28.81763        -1.25808
C         26.74001        29.59640        -1.26290
C         27.95402        31.75069        -1.53036
C         26.72060        30.94652        -1.35242
C         27.99024        33.18964        -1.19827
C         26.78399        33.91481        -1.03924
C         28.01264        36.00744        -0.85191
C         26.78933        35.28313        -0.88643
C         28.02557        37.42642        -0.68671
C         26.80419        38.21491        -0.72069
C         28.00802        40.09937         0.33900
C         26.79135        39.50591        -0.32849
C         28.01669        41.60992         0.41965
C         26.81945        42.31152         0.55488
C         27.95622        44.45854         0.60796
C         26.78518        43.72729         0.55623
C         27.97704        45.88029         0.47448
C         30.36107        27.33349        -0.62899
C         29.13712        26.72370        -0.73158
C         30.49714        28.75044        -1.01872
C         29.25626        29.50584        -1.43202
C         30.49376        31.74750        -1.14469
C         29.27914        31.00699        -1.51473
C         30.48988        33.13359        -1.10449
C         29.22964        33.86382        -1.12153
C         30.48400        35.98290        -0.85828
C         29.24172        35.27926        -0.92597
C         30.47126        37.38539        -0.75532
C         29.25961        38.11177        -0.58902
C         30.44726        40.25782        -0.23967
C         29.27838        39.52405        -0.25230
C         30.47802        41.65225         0.17937
C         29.25681        42.30709         0.45240
C         30.48290        44.51938         0.58169
C         29.24189        43.74191         0.93519
C         30.44103        45.88943         0.45426
C         29.15722        46.56655         0.41303
C         32.87517        24.50595        -0.53490
C         31.68557        25.16121        -0.55081
C         32.95847        27.35986        -0.32925
C         31.60780        26.59828        -0.28370
C         32.99050        28.80972        -0.57606
C         31.70480        29.52343        -0.57650
C         33.01496        31.69876        -0.87144
C         31.71010        31.01822        -0.71479
C         32.99574        33.14683        -0.97035
C         31.74802        33.85485        -0.95604
C         32.98313        35.98209        -0.79400
C         31.74395        35.26503        -0.89666
C         32.99918        37.40816        -0.74981
C         31.72931        38.12436        -0.90651
C         32.98125        40.29004        -0.37751
C         31.70780        39.63377        -0.68616
C         32.94723        41.68176        -0.04511
C         31.72782        42.34767         0.20725
C         32.98158        44.54610         0.21120
C         31.78563        43.77512         0.71884
C         32.92348        45.99318         0.18871
C         31.67921        46.66698         0.33117
C         32.85205        48.80896         0.21582
C         31.67720        48.07463         0.33118
C         35.37992        23.08460        -0.06249
C         35.38230        24.41654        -0.41896
C         34.14646        25.19261        -0.49031
C         35.41138        27.33424        -0.85382
C         34.17512        26.57985        -0.56338
C         35.43226        28.79913        -0.75757
C         34.20991        29.51184        -0.69273
C         35.47524        31.65028        -1.11089
C         34.19090        30.96666        -0.84250
C         35.48307        33.15336        -1.20317
C         34.21115        33.86931        -0.96796
C         35.46475        35.99275        -0.63882
C         34.21847        35.27590        -0.81526
C         35.43967        37.41537        -0.48083
C         34.19990        38.12883        -0.59261
C         35.44096        40.27493        -0.34773
C         34.18709        39.56963        -0.45038
C         35.39078        41.72014        -0.30368
C         34.19988        42.40242        -0.06708
C         35.40933        44.58838        -0.14469
C         34.17420        43.85981         0.00478
C         35.35052        46.04445        -0.30955
C         34.10265        46.75602        -0.02064
C         35.35798        48.92851         0.05440
C         34.09891        48.17184         0.03708
C         35.37615        50.34023         0.18050
C         37.74988        23.05484         0.55629
C         36.55081        22.41255         0.40575
C         37.91085        24.40452        -0.00327
C         36.67994        25.09850        -0.56571
C         37.94363        27.34369        -0.39843
C         36.72809        26.58376        -0.78395
C         37.94412        28.73614        -0.49302
C         36.75448        29.46784        -1.09778
C         37.90016        31.65051        -0.47836
C         36.74129        30.94878        -0.81119
C         37.92052        33.09230        -0.43038
C         36.81698        33.89520        -1.09827
C         37.88185        35.97915        -0.18583
C         36.68989        35.30197        -0.56324
C         37.87696        37.40070        -0.05722
C         36.65601        38.12555        -0.27686
C         38.00224        40.21203        -0.42903
C         36.64698        39.55515        -0.27942
C         37.94580        41.73495        -0.30805
C         36.65011        42.48046        -0.38196
C         37.87839        44.65776         0.01439
C         36.63594        43.93979        -0.13382
C         37.88388        46.07739         0.07042
C         36.66439        46.82628        -0.24644
C         37.81987        48.95206         0.30964
C         36.60147        48.25937         0.07239
C         37.81412        50.37335         0.37045
C         36.56581        51.03833         0.29384
C         40.15090        20.27982         1.19994
C         38.97770        20.94711         1.22885
C         40.22157        23.12303         0.99086
C         38.90796        22.44990         1.32435
C         40.25134        24.52403         0.78518
C         39.06846        25.23695         0.38281
C         40.26278        27.38657         0.43624
C         39.08574        26.63542         0.14575
C         40.29489        28.77862         0.26397
C         39.11102        29.49067        -0.13829
C         40.30285        31.63295         0.16939
C         39.11276        30.91221        -0.15239
C         40.28688        33.05255         0.24469
C         39.08185        33.78505        -0.04108
C         40.24949        35.91023         0.51685
C         39.08635        35.23087         0.05979
C         40.20509        37.33455         0.72968
C         39.07705        38.07736         0.35565
C         40.19387        40.24001         0.80490
C         39.09940        39.54036         0.37337
C         40.21265        41.72282         0.92735
C         39.02685        42.47332         0.40821
C         40.25533        44.59163         0.70207
C         39.08986        43.94219         0.27925
C         40.19710        46.03777         0.93563
C         39.02508        46.79415         0.48746
C         40.28265        48.92429         0.65765
C         39.04712        48.21610         0.50153
C         40.29017        50.36087         0.55262
C         39.07267        51.08645         0.44899
C         40.31679        53.18426         0.37448
C         39.11793        52.50636         0.37716
C         42.63311        20.26628         1.15998
C         41.42275        20.97045         1.15484
C         42.69130        23.08123         0.95880
C         41.43833        22.39885         1.05758
C         42.70607        24.51235         0.92238
C         41.49096        25.21773         0.86379
C         42.75834        27.38576         0.79595
C         41.44741        26.70390         1.07303
C         42.76105        28.78198         0.64651
C         41.52382        29.50844         0.46310
C         42.76817        31.64302         0.53241
C         41.52977        30.91090         0.39888
C         42.73114        33.04062         0.61860
C         41.49201        33.76974         0.55493
C         42.67031        35.84869         1.26031
C         41.46163        35.17501         0.72176
C         42.68933        37.33182         1.48155
C         41.36724        38.04058         1.33408
C         42.69967        40.29097         1.32639
C         41.37226        39.54036         1.33621
C         42.70227        41.74718         1.02503
C         41.49448        42.46123         0.99463
C         42.73354        44.60684         0.99873
C         41.48783        43.88608         0.92951
C         42.77227        46.02789         1.01206
C         41.52358        46.79902         1.11916
C         42.75995        48.91364         0.78386
C         41.51341        48.23424         0.81620
C         42.77756        50.35183         0.66775
C         41.53926        51.05862         0.56335
C         42.78796        53.17386         0.42457
C         41.54726        52.48072         0.45567
C         43.85242        20.93609         1.06446
C         45.16929        23.05410         0.83685
C         43.91057        22.34216         0.95723
C         45.18554        24.48172         0.82597
C         43.96338        25.21706         0.89803
C         45.22233        27.34565         0.84510
C         43.97237        26.64466         0.84928
C         45.20832        28.75701         0.83830
C         44.00375        29.49145         0.67217
C         45.26635        31.60718         0.63919
C         44.02034        30.92117         0.61081
C         45.30720        33.07287         0.58032
C         43.99945        33.79963         0.62736
C         45.28312        35.91627         1.54391
C         43.98275        35.13566         1.28614
C         45.18220        37.36545         1.08075
C         43.96250        38.08305         1.24487
C         45.09613        40.22870         0.74372
C         43.93560        39.50502         1.11374
C         45.12194        41.64629         0.75253
C         43.94532        42.42821         0.93206
C         45.19260        44.59206         0.91737
C         43.97364        43.87596         0.95372
C         45.24300        46.01772         0.92858
C         43.99390        46.75211         0.98289
C         45.20653        48.93623         1.14579
C         43.96785        48.18022         0.96091
C         45.25065        50.36906         0.84684
C         44.00556        51.07191         0.66118
C         43.97715        52.48910         0.51549
C         47.59395        23.03429         0.55333
C         46.39647        22.36231         0.71075
C         47.64950        24.45135         0.53728
C         46.43380        25.17814         0.70448
C         47.70384        27.27811         0.66324
C         46.46294        26.60774         0.77207
C         47.78053        28.71321         0.94572
C         46.45758        29.48888         1.04678
C         47.73719        31.61519         0.75686
C         46.48625        30.92817         0.80165
C         47.75053        33.03822         0.86591
C         46.55808        33.78072         0.94276
C         47.72641        35.95444         0.95946
C         46.54222        35.19578         1.08163
C         47.64183        37.36172         0.76157
C         46.38352        38.02730         0.73717
C         47.56425        40.18143        -0.02607
C         46.29998        39.45543         0.34881
C         47.59021        41.68404         0.07408
C         46.42000        42.35193         0.72519
C         47.70818        44.59647         0.57306
C         46.46838        43.85780         0.88415
C         47.72258        45.99193         0.58513
C         46.49197        46.69287         0.82793
C         47.75792        48.88488         0.65222
C         46.56818        48.13399         1.06035
C         47.70337        50.28315         0.68194
C         46.49957        50.99674         0.78579
C         50.12774        24.47439         0.13755
C         48.89383        25.15530         0.33716
C         50.12882        27.30769         0.13365
C         48.90637        26.57752         0.36488
C         50.10835        28.73426         0.12677
C         48.97685        29.46898         0.55343
C         50.18740        31.61304         0.30242
C         48.96558        30.88616         0.57758
C         50.23289        33.02691         0.42177
C         49.04605        33.72870         0.94417
C         50.23672        35.90538         0.37927
C         49.03822        35.25538         0.94366
C         50.24620        37.36368         0.37444
C         48.89463        38.13372         0.58196
C         50.04530        40.19849        -0.47994
C         48.85076        39.49683         0.09721
C         50.17028        41.63548         0.03601
C         48.89278        42.41616         0.08472
C         50.27531        44.60091         0.25850
C         48.96112        43.83967         0.55549
C         50.16459        46.04766         0.01926
C         48.95733        46.72911         0.31624
C         50.09533        48.83519        -0.20574
C         48.93252        48.15646         0.24622
C         51.31290        25.16169         0.00411
C         52.61722        27.27559        -0.06083
C         51.36103        26.58611        -0.00746
C         52.63803        28.68695        -0.42156
C         51.27456        29.47876        -0.33484
C         52.57937        31.61158        -0.29798
C         51.35367        30.92025        -0.10662
C         52.58854        33.03263        -0.26173
C         51.39226        33.74382         0.05941
C         52.53971        35.89131        -0.53060
C         51.37464        35.19425         0.00329
C         52.49902        37.27445        -0.72870
C         51.36598        38.05966        -0.29038
C         52.55486        40.14685        -0.84976
C         51.33648        39.42679        -0.42607
C         52.62197        41.63027        -0.75847
C         51.45139        42.39312        -0.18992
C         52.43548        44.56982        -0.94735
C         51.40906        43.86856        -0.33045
C         52.46217        46.00571        -0.94345
C         51.30195        46.73724        -0.49538
C         51.22899        48.15364        -0.59082
C         55.04463        27.37690         0.22761
C         53.85979        26.66466         0.24788
C         55.07262        28.78656        -0.01388
C         53.86047        29.47297        -0.27103
C         55.06074        31.60490        -0.40930
C         53.83205        30.88800        -0.38221
C         55.03848        33.03811        -0.61561
C         53.80465        33.74551        -0.54706
C         54.95058        35.81708        -1.19956
C         53.76430        35.15310        -0.78942
C         54.85969        37.18590        -1.75841
C         53.54300        37.92408        -1.54928
C         54.77665        40.15777        -2.15471
C         53.52862        39.41747        -1.72281
C         54.83656        41.64832        -2.01360
C         53.57266        42.34239        -1.66665
C         54.76892        44.56411        -1.98823
C         53.51723        43.85139        -1.67669
C         54.76219        45.98552        -1.84361
C         53.64744        46.66373        -1.39325
C         56.28442        29.52950         0.00294
C         56.27637        30.88891        -0.23327
C         56.22110        33.76348        -0.89428
C         56.17219        35.11282        -1.19996
C         56.05599        38.01885        -2.02389
C         56.01391        39.35099        -2.23899
C         55.90840        42.41253        -2.41236
C         55.88668        43.84018        -2.37845
O         37.62926        24.43318        -1.45750
O         30.15848        28.92962        -2.43888
O         31.68474        39.06663        -2.04024
O         41.94042        40.06342         2.56623
O         37.52812        42.28171        -1.58987
O         47.21141        29.08602         2.24119
O         51.83776        29.02695        -1.59388
O         45.97612        48.55405         2.32091
O         51.05656        41.87859         1.13637
O         53.29684        40.82085         0.25411
O         49.29436        34.48709         2.16989
O         40.68352        46.43256         2.26031
O         44.71911        33.70612        -0.64243
O         43.14431        35.11359         2.47365
O         35.44576        32.34290        -2.43026
O         32.26476        27.02534         0.94373
O         31.49170        30.37270         0.61671
O         39.12849        42.13374         1.84351
O         52.95387        43.04666        -2.78517
O         36.03906        46.49638        -1.52959
O         28.67808        31.46312        -2.77619
O         46.64969        39.68322        -1.08839
O         48.08590        42.33649        -1.15101
O         53.67611        39.82525        -3.09867
O         41.84245        37.58852         2.64889
O         49.88437        37.93472         1.66587
O         49.89267        44.16087         1.60846
O         53.82591        37.23630        -2.79966
O         36.14290        26.88356        -2.09863
O         46.71561        42.93598         2.03699
O         32.01087        43.64652         2.18661
H         32.84469        43.14357         2.31189
O         37.30738        34.08479        -2.46389
H         36.95143        33.32712        -2.98942
O         38.64496        22.76167         2.74065
H         39.39376        22.40421         3.26337
O         36.90541        29.38702        -2.55595
H         36.73831        28.44059        -2.80163
O         49.79492        40.33448        -1.92350
H         48.98390        40.89010        -2.03805
O         41.23464        26.86783         2.53662
H         42.01825        26.48731         2.98832
O         27.96938        39.63982         1.73738
H         27.92643        38.66003         1.71869
O         29.25602        43.65452         2.41126
H         30.19498        43.49756         2.67742
O         45.45630        35.99816         2.98452
H         44.55419        35.94880         3.38526
O         38.40472        39.92303        -1.80579
H         37.94154        40.58391        -2.37371
H         26.97699        26.94812        -0.90983
H         25.79385        29.04784        -1.14085
H         25.75382        31.46644        -1.30119
H         25.82079        33.38929        -1.07692
H         25.83257        35.81322        -0.79434
H         25.88837        37.76136        -1.12580
H         25.85836        40.08283        -0.39462
H         25.86274        41.77238         0.57281
H         25.81746        44.24260         0.46479
H         27.02115        46.41657         0.37726
H         29.03300        25.65416        -0.50090
H         29.12749        47.65652         0.28828
H         32.87524        23.42059        -0.70300
H         30.76510        24.61099        -0.79112
H         32.78941        49.90397         0.26463
H         30.73677        48.62690         0.45526
H         34.43199        22.53547         0.01464
H         34.43681        50.90850         0.15986
H         36.41966        21.38802         0.77998
H         36.52203        52.13408         0.34862
H         40.16186        19.17917         1.19528
H         38.03827        20.37898         1.28480
H         40.33209        54.28116         0.30183
H         38.18536        53.08100         0.30406
H         42.61877        19.16920         1.23159
H         42.78578        54.26929         0.33096
H         44.77593        20.34259         1.07531
H         44.91768        53.05498         0.49992
H         48.51289        22.44507         0.43741
H         46.41126        21.26453         0.71180
H         48.61836        50.86699         0.51429
H         46.55627        52.08927         0.68974
H         50.15150        23.37726         0.10388
H         50.09194        49.93029        -0.28191
H         52.24242        24.59337        -0.13690
H         52.08384        48.72594        -0.97357
H         55.99165        26.86257         0.44448
H         53.88747        25.59635         0.50436
H         55.66617        46.54862        -2.11754
H         53.70113        47.75936        -1.33819
H         57.23277        29.00650         0.19129
H         57.23204        31.43023        -0.23247
H         57.18892        33.24724        -0.93998
H         57.10024        35.62628        -1.48517
H         57.03633        37.52005        -2.04014
H         56.96127        39.88574        -2.40501
H         56.83788        41.92488        -2.74012
H         56.80659        44.38131        -2.64343
