         334
 CSIRO Nanostructure Databank - Neutral Graphene Oxide Data Set
C         30.28883        57.14827        -0.17390
C         30.35484        58.47764        -0.50350
C         29.18276        59.24096        -0.82277
C         30.48076        61.30091        -1.04212
C         29.26023        60.59333        -1.10574
C         32.86979        52.84671        -0.06094
C         32.80506        54.28323        -0.03605
C         31.58791        54.93390        -0.05063
C         32.75985        57.12241         0.49409
C         31.48590        56.37265         0.22237
C         32.74943        58.61350         0.28353
C         31.71043        59.13973        -0.68918
C         32.89354        61.35221        -0.58842
C         31.68558        60.65330        -0.72652
C         35.33726        48.62933         0.10575
C         35.31609        50.00734        -0.13250
C         34.12782        50.75256        -0.01915
C         35.29929        52.93207        -0.62131
C         34.06949        52.15659        -0.18517
C         35.29097        54.35228        -0.09585
C         34.06561        55.02868         0.07263
C         35.25988        57.14775         0.44694
C         34.05642        56.42197         0.33963
C         35.28140        58.62681         0.87865
C         34.01850        59.37946         0.44656
C         35.31042        61.42623        -0.17265
C         34.10545        60.73747        -0.16474
C         37.61511        44.30675         1.09688
C         37.70197        45.77316         0.73246
C         36.52678        46.47882         0.49233
C         37.80247        48.53145         0.14568
C         36.54428        47.86590         0.19107
C         37.84908        49.94795        -0.31822
C         36.55457        50.69313        -0.67549
C         37.76648        52.88880        -0.21041
C         36.59251        52.18644        -0.36305
C         37.77290        54.34227        -0.03902
C         36.50228        55.05140         0.07668
C         37.73812        57.18728         0.52813
C         36.47322        56.44275         0.35985
C         37.70419        58.64538         0.29785
C         36.54289        59.33377         0.41031
C         37.74620        61.47804         0.20526
C         36.55397        60.78939         0.16159
C         40.21119        40.13237         0.34728
C         40.20882        41.48186         0.72953
C         38.96604        42.22032         0.85935
C         40.16957        44.33130         1.17841
C         38.93869        43.57843         1.03782
C         40.17146        45.70893         1.05937
C         38.95109        46.45234         0.77156
C         40.18768        48.63836         0.96535
C         38.97697        47.85359         0.51119
C         40.28760        50.06874         0.50073
C         39.09093        50.73341        -0.06261
C         40.22141        52.90159         0.08929
C         39.04820        52.21116        -0.05607
C         40.25060        54.34286        -0.07094
C         38.97381        55.02264         0.01690
C         40.23701        57.22434        -0.08729
C         39.02951        56.46332         0.30942
C         40.22183        58.57622        -0.12206
C         38.94218        59.37060        -0.19269
C         40.31680        61.44616         0.19740
C         39.02867        60.73192         0.52384
C         42.66004        36.01922        -0.85303
C         42.65238        37.37599        -0.45125
C         41.43809        38.06458        -0.21875
C         42.67326        40.11592         0.33972
C         41.42805        39.42458         0.16152
C         42.66786        41.48770         0.72891
C         41.43827        42.15347         0.94492
C         42.71251        44.27687         1.33093
C         41.41772        43.53456         1.54766
C         42.66867        45.74476         1.67412
C         41.48003        46.42541         0.99696
C         42.73182        48.69772         1.08967
C         41.50255        47.90941         0.83430
C         42.73766        50.08088         0.85921
C         41.46295        50.75097         0.59777
C         42.73591        52.86796         0.12458
C         41.46751        52.25560         0.62241
C         42.72651        54.24847        -0.48398
C         41.43394        55.01092        -0.28653
C         42.72650        57.21437        -0.36796
C         41.43178        56.48052        -0.65287
C         42.72728        58.58498        -0.31709
C         41.43823        59.32624        -0.62402
C         42.72554        61.44917        -0.15635
C         41.46403        60.77835        -0.17060
C         45.08921        33.32564        -1.78681
C         43.88378        33.97553        -1.52344
C         45.11449        36.03311        -0.97207
C         43.86952        35.33766        -1.11372
C         45.12805        37.39590        -0.55811
C         43.90055        38.07155        -0.28922
C         45.14672        40.13189         0.28742
C         43.90997        39.43821         0.12110
C         45.14074        41.51896         0.62865
C         43.91605        42.19072         0.83781
C         45.14563        44.35905         0.90686
C         43.89749        43.61813         1.09505
C         45.15848        45.73233         0.92255
C         43.99049        46.48610         1.42051
C         45.25068        48.64980         0.82310
C         43.99645        47.96657         1.22031
C         45.26187        50.14091         1.06683
C         43.95016        50.81886         0.73185
C         45.18814        52.93007         0.12318
C         43.93453        52.19364         0.31589
C         45.20556        54.30032         0.06317
C         43.90195        55.06901         0.12355
C         45.25289        57.20695        -0.17267
C         44.00917        56.44197        -0.54429
C         45.19651        58.62046        -0.22422
C         43.96964        59.31807        -0.25136
C         45.18732        61.48477        -0.09861
C         43.96039        60.76768        -0.20236
C         46.30681        33.99253        -1.65761
C         47.56706        36.05152        -1.11467
C         46.34638        35.35496        -1.24955
C         47.60004        37.40693        -0.70610
C         46.36722        38.08805        -0.42118
C         47.62548        40.11411         0.15527
C         46.39113        39.44966         0.01260
C         47.67916        41.47143         0.79728
C         46.39118        42.25061         0.69143
C         47.62724        44.40243         0.59089
C         46.39180        43.63135         0.72880
C         47.59060        45.73655         0.32898
C         46.27554        46.46141         0.21509
C         47.65922        48.61475         0.34944
C         46.38063        47.93613         0.55959
C         47.63793        50.07395         0.33177
C         46.47094        50.77389         0.44306
C         47.70199        52.92701         0.31650
C         46.46083        52.17224        -0.10736
C         47.63594        54.36039         0.41820
C         46.45476        55.04456         0.14262
C         47.70310        57.19395         0.13175
C         46.46418        56.49728         0.03272
C         47.75542        58.62518        -0.19206
C         46.44772        59.38262        -0.35781
C         47.67472        61.50548        -0.01849
C         46.44408        60.84308        -0.13883
C         48.82289        38.10603        -0.58278
C         50.08809        40.16580        -0.07931
C         48.85735        39.45626        -0.16410
C         50.11631        41.56826         0.17054
C         48.91084        42.24966         0.42752
C         50.14915        44.43996         0.30324
C         48.94314        43.69651         0.82110
C         50.11305        45.79196         0.04425
C         48.78692        46.45503        -0.24727
C         50.02097        48.67389        -0.51545
C         48.80064        47.94142         0.00340
C         50.05964        50.12928        -0.13456
C         48.89362        50.79346         0.13342
C         50.18612        52.82586         0.85196
C         48.88497        52.22889         0.37654
C         50.16468        54.34816         0.91274
C         48.86308        55.10129         0.76683
C         50.13944        57.23710         0.57475
C         48.91161        56.54552         0.47808
C         50.15448        58.68708         0.44027
C         48.96083        59.38737         0.14112
C         50.15132        61.51234         0.24187
C         48.92695        60.81133         0.09859
C         51.35287        42.29860         0.14422
C         52.59601        44.43322         0.05811
C         51.39186        43.70415         0.20753
C         52.59205        45.83948        -0.04294
C         51.33367        46.54968        -0.11967
C         52.55030        48.68497        -0.28075
C         51.32619        47.94718        -0.26882
C         52.58276        50.10728        -0.28740
C         51.31049        50.89633        -0.48398
C         52.57977        52.95181         0.15026
C         51.38477        52.26690         0.13379
C         52.60881        54.38247         0.43949
C         51.41168        55.09240         0.67043
C         52.62827        57.21467         0.67814
C         51.38568        56.51597         0.68643
C         52.65148        58.71878         0.89375
C         51.35577        59.40962         0.55707
C         52.63575        61.52989         0.42949
C         51.36720        60.82469         0.41277
C         53.80148        46.57172        -0.14221
C         55.02468        48.70443        -0.36231
C         53.80081        47.96684        -0.24224
C         55.03423        50.07959        -0.38013
C         53.80239        50.81151        -0.26046
C         55.04445        52.95208         0.01368
C         53.82968        52.25509        -0.10333
C         55.07135        54.36821         0.17393
C         53.83695        55.08930         0.36007
C         55.12318        57.21949         0.50614
C         53.82760        56.50379         0.54468
C         55.10375        58.69489         0.29496
C         53.76492        59.35613         0.03987
C         55.10002        61.50991         0.20845
C         53.83258        60.85802         0.26181
C         56.30119        50.85369        -0.65650
C         57.56346        52.97668        -0.14832
C         56.33467        52.16337         0.14243
C         57.56061        54.34720        -0.09837
C         56.31809        55.07932         0.10943
C         57.57838        57.21256         0.03855
C         56.35935        56.47954         0.18716
C         57.59017        58.62575        -0.05650
C         56.30064        59.36360        -0.33546
C         57.55313        61.50427        -0.03693
C         56.31367        60.84030         0.00053
C         58.79190        55.10383        -0.17367
C         60.14757        57.18630        -0.02593
C         58.81748        56.46840        -0.07042
C         60.06248        58.68766        -0.17711
C         58.80267        59.35910        -0.14912
C         60.00329        61.50951        -0.30688
C         58.77239        60.80165        -0.19001
C         61.23353        59.41907        -0.31587
C         61.20210        60.83118        -0.39013
O         31.94420        56.69381         1.62428
O         47.22020        58.95608        -1.52998
O         41.30924        59.27602        -2.05716
O         44.27927        47.35705         2.59637
O         38.55742        56.77537         1.68198
O         38.82225        50.13839        -1.41353
O         49.42708        54.78974         2.10518
O         55.33213        58.19682         1.63755
O         32.96513        59.37958         1.49403
O         41.69764        47.01561        -0.32599
O         36.41042        50.60089        -2.13074
H         37.33151        50.59178        -2.48982
O         44.16277        56.24765        -1.98521
H         44.08377        57.12651        -2.41489
O         41.46012        52.59139         2.07173
H         40.68271        52.15062         2.47710
O         56.09955        59.27830        -1.79277
H         56.82256        59.78753        -2.21794
O         45.90627        46.43244        -1.20920
H         46.75449        46.39319        -1.72081
O         32.18861        58.70420        -2.00211
H         31.56092        59.03935        -2.67656
O         61.05699        56.63136        -0.98805
H         60.68538        56.77955        -1.88143
O         38.73880        59.62258        -1.60655
H         39.64352        59.57919        -2.04886
O         42.37059        45.81786         3.10046
H         42.98455        46.50025         3.47589
O         56.36612        51.13494        -2.06373
H         55.52929        51.57068        -2.32778
O         47.82867        41.21148         2.27282
H         48.56743        40.57125         2.37099
O         49.11511        43.68004         2.29014
H         48.54712        42.94448         2.63291
O         46.55036        51.99413        -1.57192
H         46.19434        52.80493        -1.99522
O         41.29517        56.56021        -2.11418
H         41.26371        57.55446        -2.31599
O         43.58444        55.32674         1.50816
H         43.38062        54.47097         1.94464
O         35.32287        58.63029         2.32561
H         34.38608        58.66557         2.63341
O         56.42848        51.75337         1.54512
H         56.43494        52.56506         2.09480
O         42.88964        54.04871        -1.90761
H         42.61352        54.88331        -2.35753
O         39.06774        60.51891         1.96557
H         38.31959        59.92611         2.20039
O         36.62335        43.64589         0.30386
H         36.88780        43.71413        -0.63628
O         41.31448        43.31689         3.00086
H         41.58980        44.16623         3.42748
O         40.00491        48.74039         2.42878
H         39.09061        49.04836         2.60372
O         45.43430        50.30897         2.52370
H         44.97652        49.55942         2.96449
O         53.40645        59.10902        -1.33917
H         54.19563        59.31974        -1.89283
O         51.22960        51.12051        -1.94385
H         51.05294        50.23719        -2.34848
O         35.19486        53.05699        -2.07836
H         35.45560        52.17507        -2.44751
O         48.61078        46.30101        -1.71386
H         49.20771        46.97097        -2.13834
O         50.34163        52.35531         2.23160
H         49.84578        52.99570         2.79443
O         49.86768        48.67767        -2.01133
H         49.05890        49.20233        -2.20734
O         52.88996        58.97932         2.29589
H         53.79746        58.64375         2.50348
H         29.31265        56.63720        -0.16220
H         28.20416        58.73959        -0.79636
H         30.47728        62.39233        -1.17887
H         28.33947        61.14853        -1.33398
H         31.93660        52.28316         0.09819
H         30.66317        54.36083        -0.21904
H         32.90937        62.43014        -0.81587
H         34.38950        48.12030         0.34071
H         33.20607        50.22418         0.27475
H         35.32886        62.47344        -0.51197
H         37.24831        44.24975         2.16245
H         35.56503        45.94677         0.53084
H         37.75712        62.56945         0.05757
H         39.25644        39.60994         0.18631
H         38.01783        41.67936         0.72116
H         40.38565        62.51493         0.46700
H         41.70387        35.48815        -0.97134
H         40.48384        37.53356        -0.35212
H         42.73921        62.54181        -0.00657
H         45.07910        32.27282        -2.10268
H         42.93099        33.43817        -1.63250
H         45.14892        62.57922         0.01129
H         47.24949        33.46870        -1.87075
H         48.51255        35.53255        -1.33204
H         47.68239        62.60319         0.06059
H         49.76521        37.59103        -0.82102
H         51.02637        39.63931        -0.30436
H         50.15351        62.61053         0.17627
H         52.29087        41.74028         0.00484
H         53.55378        43.89309         0.01539
H         52.62805        62.62756         0.51761
H         54.75926        46.03070        -0.11782
H         55.97042        48.14752        -0.44198
H         55.12579        62.60272         0.34856
H         57.19943        50.24112        -0.40030
H         58.51609        52.43870        -0.26839
H         57.58322        62.59600         0.09959
H         59.73761        54.55273        -0.28427
H         60.60715        56.97827         0.98245
H         59.98276        62.60839        -0.33808
H         62.19551        58.89009        -0.36573
H         62.14420        61.38713        -0.49466
