         346
 CSIRO Nanostructure Databank - Neutral Graphene Oxide Data Set
C          1.23403         1.99608        -0.73629
C          1.20597         3.39532        -0.46492
C          2.42778         1.33133        -0.75473
C          2.32619         4.08453        -0.04244
C          1.23839         6.26901        -0.51610
C          1.19866         7.68390        -0.47726
C          2.29493         5.53399         0.00424
C          2.28032         8.44853        -0.06398
C          1.03915        10.67303        -0.39586
C          0.99495        12.01491        -0.28006
C          2.25736         9.91106        -0.09802
C          2.15548        12.75301         0.35397
C          1.06541        15.02363        -0.04670
C          1.09401        16.44458        -0.21027
C          2.18985        14.27024         0.18403
C          2.26534        17.16935        -0.11869
C          2.36263        18.56934        -0.45124
C          3.65797         1.95004        -0.32026
C          3.51513         3.25477         0.49642
C          4.81421         1.30023        -0.70718
C          4.79038         4.09643         0.62339
C          3.41212         6.29237         0.61770
C          3.48452         7.76079         0.38395
C          4.69103         5.54426         0.92844
C          4.68356         8.43928         0.46409
C          3.43389        10.60472         0.04964
C          3.47137        12.11451        -0.14739
C          4.70382         9.85622         0.03308
C          4.71510        12.75127         0.50537
C          3.45917        14.96237         0.49676
C          3.48938        16.49358         0.33781
C          4.75867        14.26226         0.36791
C          4.78220        17.15384         0.11348
C          3.55831        19.22924        -0.44327
C          4.80906        18.54265        -0.19202
C          6.12682         1.63078        -0.21246
C          6.00693         3.52604         0.88035
C          7.35453         1.59893        -0.81432
C          7.28537         4.21428         0.85135
C          5.97717         6.30155         1.14920
C          5.95072         7.81118         0.91330
C          7.27767         5.57243         1.03659
C          7.23655         8.52862         0.66435
C          6.00525        10.60843         0.05466
C          5.99592        12.06608         0.10314
C          7.23739         9.86168         0.38850
C          7.20753        12.80442         0.42638
C          5.93783        14.96257         0.28501
C          5.98106        16.41720         0.20622
C          7.22955        14.23993        -0.04691
C          7.23146        17.09627         0.15482
C          6.04562        19.20466        -0.25392
C          7.25933        18.51378        -0.03712
C          8.54805         2.18571        -0.21936
C          8.55275         3.33924         0.80381
C          9.75580         1.65322        -0.59688
C          9.81801         4.17430         0.65309
C          8.53512         6.33334         1.23282
C          8.52181         7.82379         0.95489
C          9.84731         5.53526         1.32165
C          9.79713         8.45650         0.55599
C          8.49875        10.62037         0.18029
C          8.52556        12.07656         0.49663
C          9.80388         9.88274         0.17533
C          9.77773        12.82592         0.31644
C          8.50278        14.98876         0.28757
C          8.47429        16.36750         0.29554
C          9.76421        14.24233         0.29382
C          9.75699        17.13611         0.54000
C          8.51086        19.21850        -0.08281
C          9.73563        18.58774         0.10494
C         11.02306         2.19111        -0.16795
C         11.01610         3.53935         0.37779
C         12.21435         1.51792        -0.35135
C         12.30370         4.18206         0.55853
C         11.05768         6.33956         0.89294
C         10.99113         7.73488         0.62526
C         12.29510         5.63112         0.72436
C         12.25259         8.46902         0.31765
C         11.02115        10.69603         0.28828
C         11.00853        12.10151         0.25784
C         12.28463         9.96215         0.18985
C         12.25605        12.83869         0.14457
C         10.98832        14.93765         0.13934
C         10.94467        16.40060        -0.04035
C         12.23434        14.25811         0.02762
C         12.22704        17.15670        -0.20106
C         10.96990        19.28482         0.03033
C         12.22349        18.62803         0.00268
C         13.49563         2.05471         0.03780
C         13.50370         3.44855         0.50046
C         14.63558         1.29860        -0.28201
C         14.75924         4.17679         0.59525
C         13.49150         6.32861         0.56994
C         13.52421         7.78961         0.69235
C         14.73333         5.61500         0.29253
C         14.81381         8.55447         0.61873
C         13.53224        10.73122         0.57498
C         13.48896        12.15124         0.07823
C         14.80867         9.99176         0.27807
C         14.68069        12.83017        -0.19945
C         13.47991        14.97265        -0.08820
C         13.50279        16.41943        -0.11374
C         14.68671        14.24269        -0.21907
C         14.68395        17.14364        -0.10342
C         13.45201        19.29727        -0.00039
C         14.69452        18.59547        -0.10848
C         15.97240         1.60256         0.15653
C         15.99092         3.60526         0.85065
C         17.20176         1.42372        -0.44250
C         17.27775         4.21244         0.61286
C         16.04369         6.36002         0.30149
C         16.07234         7.82386         0.44004
C         17.29265         5.61698         0.49707
C         17.25363         8.51346         0.29921
C         15.95646        10.63475        -0.08435
C         15.86688        12.02806        -0.69522
C         17.24059         9.94711         0.01978
C         17.20055        12.78419        -0.72317
C         15.98606        14.94162        -0.15347
C         15.97980        16.44504        -0.04564
C         17.24157        14.24936        -0.54031
C         17.19808        17.18717        -0.39969
C         15.92624        19.26385        -0.17851
C         17.15895        18.56930        -0.40676
C         18.45914         2.02959         0.02344
C         18.49698         3.42730         0.51887
C         19.59742         1.29582        -0.35977
C         19.70473         4.19008         0.57608
C         18.49890         6.35741         0.47669
C         18.50755         7.78238         0.35669
C         19.71459         5.63032         0.52592
C         19.72266         8.48073         0.43548
C         18.43487        10.61960        -0.10355
C         18.50228        12.04375        -0.50505
C         19.67679         9.96504         0.36285
C         19.74268        12.83621        -0.33909
C         18.43240        14.93629        -0.60746
C         18.42453        16.43895        -0.87926
C         19.72029        14.24150        -0.57898
C         19.69322        17.10650        -0.30832
C         18.41795        19.33983        -0.64028
C         19.73039        18.60929        -0.57406
C         20.94134         1.54433         0.06074
C         20.99993         3.57408         0.68071
C         22.16463         1.22443        -0.50441
C         22.18735         4.14061         0.23554
C         20.93769         6.34921         0.46654
C         20.94255         7.75876         0.53096
C         22.16002         5.60513         0.07823
C         22.23063         8.49286         0.63960
C         20.95114        10.75148         0.29794
C         20.97422        12.15696        -0.19777
C         22.23667         9.98493         0.42952
C         22.18594        12.84333        -0.37045
C         20.94812        14.94985        -0.59508
C         20.97352        16.43886        -0.84407
C         22.19371        14.26508        -0.50939
C         22.21707        17.12065        -0.32171
C         20.99678        19.27816        -0.25450
C         22.19970        18.54633        -0.13893
C         23.38993         1.95406        -0.20122
C         23.40821         3.39466         0.01835
C         24.61511         1.27693        -0.31441
C         24.64464         4.09082        -0.13092
C         23.45829         6.32438         0.00466
C         23.54168         7.69941         0.63110
C         24.72887         5.54948        -0.05994
C         24.68700         8.43847        -0.10249
C         23.46387        10.62541        -0.13177
C         23.44759        12.07756        -0.49808
C         24.77502         9.94870         0.23887
C         24.74671        12.79526        -0.46193
C         23.43366        14.98598        -0.47653
C         23.43357        16.40032        -0.27798
C         24.74444        14.28898        -0.75024
C         24.66802        17.09944        -0.03590
C         23.43411        19.21745         0.08912
C         24.66666        18.52369         0.11064
C         25.86368         1.93864        -0.21259
C         25.87297         3.37087        -0.20746
C         27.10288         1.23480        -0.18872
C         27.12748         4.05216        -0.25288
C         25.91149         6.23175        -0.18988
C         26.02807         7.70392         0.15932
C         27.16857         5.50922        -0.63963
C         27.19370         8.44966        -0.48025
C         25.94799        10.60888        -0.51471
C         25.91113        12.10477        -0.32585
C         27.25563         9.90725        -0.21718
C         27.16145        12.79055         0.07109
C         25.94827        14.99380        -0.18557
C         25.91472        16.38289         0.02372
C         27.27540        14.26011        -0.27989
C         27.13299        17.12714         0.17395
C         25.90132        19.22420         0.23099
C         27.13627        18.54125         0.21227
C         28.31980         1.91414        -0.14284
C         28.31777         3.34558        -0.18286
C         29.59712         1.21723        -0.06679
C         29.59499         4.09813        -0.24604
C         28.41895         6.25012        -0.22278
C         28.51126         7.67096        -0.47829
C         29.59652         5.51219         0.32231
C         29.73969         8.42878        -0.19770
C         28.44266        10.55279        -0.03251
C         28.41555        12.00183         0.31056
C         29.71989         9.83967        -0.07540
C         29.72777        12.72580         0.45272
C         28.35384        14.96645         0.57844
C         28.40863        16.39492         0.08545
C         29.71213        14.23999         0.56742
C         29.70237        17.14625         0.05514
C         28.39821        19.24757         0.28497
C         29.62296        18.61133         0.24459
C         30.79106         1.85939        -0.07302
C         30.89098         3.32577        -0.20954
C         32.08946         4.07510         0.18163
C         30.90662         6.24422         0.08216
C         30.94390         7.67418        -0.01291
C         32.09009         5.45274         0.16968
C         32.15421         8.42880         0.04336
C         30.94946        10.56610        -0.01356
C         30.97099        12.02039         0.07083
C         32.15280         9.81009        -0.00320
C         32.11312        12.79561        -0.06577
C         30.96799        14.97095         0.26193
C         30.97379        16.42838         0.30985
C         32.10631        14.21772         0.02313
C         32.10391        17.18344         0.53799
C         30.86693        19.30332         0.45479
C         32.04499        18.61306         0.58512
O          5.88894         7.22949         2.26159
O         17.98057        12.31220        -1.87477
O         16.15350        15.60645         1.17190
O          8.50601         7.29106         2.34517
O         22.34796         9.44327         1.78318
O          3.38196        15.85627         1.65683
O          6.08280         2.15322         1.08949
O         11.38283        16.79576        -1.37412
O         21.03531         2.30293         1.25397
O          3.70262         5.81461         1.98709
O          7.81406        12.46874         1.73535
O          5.41721        10.08185        -1.26316
O         12.34205         9.10042        -1.00262
O         29.07557        16.61880        -1.20818
O         14.15678         8.26397         1.95215
O         27.75001         8.05841        -1.73079
O         16.00889         2.31216         1.38116
O         27.51999        12.36705         1.42484
O         22.67436         6.16982        -1.20459
O          9.08789        10.25693        -1.09863
O         15.37107         5.99357        -0.99456
O         23.31819        10.99781        -1.53448
O         30.31645         3.89052        -1.47665
O         29.85926        13.39309         1.75590
O         20.19327        10.66896         1.55867
O         29.42281         5.33864         1.78104
H         29.27023         6.22367         2.17518
O          8.66747         2.74096         2.12399
H          9.03268         3.43551         2.72297
O         19.69253        16.90423         1.12119
H         18.77504        17.00249         1.45478
O          9.98357        17.13905         1.98369
H          9.20666        17.55771         2.41033
O          7.24008        14.10750        -1.50773
H          7.27607        15.00817        -1.89396
O          3.56684        12.35364        -1.56844
H          4.28371        11.76851        -1.91056
O         13.47957        10.87020         2.03062
H         13.69384         9.98156         2.41425
O         27.12305         5.48087        -2.10621
H         27.22588         6.41087        -2.42120
O         18.38308        16.53262        -2.32180
H         19.29987        16.37709        -2.66413
O         23.85663         7.42760         2.02085
H         23.45015         8.13726         2.57031
O         24.36055         8.29414        -1.48573
H         25.00682         8.82497        -2.01763
O         26.40212         7.76039         1.55827
H         25.60934         7.49571         2.09052
O         21.02354        16.62815        -2.29822
H         21.07946        17.59368        -2.47164
O         15.50706        11.78261        -2.08773
H         16.35153        11.67506        -2.58649
O         27.69577        14.26007        -1.67816
H         28.05699        15.15292        -1.89720
O         24.91309        14.34550        -2.22247
H         25.87195        14.18437        -2.40360
O         25.81181        10.40271        -1.95314
H         24.97128        10.84842        -2.23688
O         25.00901        10.15182         1.63698
H         24.16277        10.00027         2.11896
O          4.64037        12.48463         1.94933
H          5.48167        12.78722         2.35847
O          3.12917         2.87726         1.84256
H          3.12079         3.70511         2.37487
O         10.00341         5.22181         2.75171
H          9.71808         6.02967         3.24100
O         27.88168        15.03941         1.93018
H         28.06233        14.15793         2.33989
O          1.99593        12.52448         1.77413
H          2.83518        12.77424         2.22795
O         19.13121        19.03735        -1.86625
H          0.30879         1.49234        -1.04761
H          0.26767         3.92617        -0.67612
H          2.47464         0.29606        -1.12430
H          0.37552         5.76102        -0.96628
H          0.28982         8.17505        -0.84946
H          0.15651        10.13199        -0.76622
H          0.06565        12.55110        -0.52154
H          0.09856        14.52343        -0.20015
H          0.16376        16.95562        -0.49892
H          1.43813        19.10873        -0.70574
H          4.71516         0.45169        -1.40507
H          3.59639        20.30198        -0.68218
H          7.47187         1.09116        -1.78387
H          6.07293        20.28422        -0.46348
H          9.76928         0.77241        -1.25762
H          8.49010        20.29308        -0.32197
H         12.19247         0.50768        -0.78840
H         10.94780        20.38278        -0.05517
H         14.48827         0.41238        -0.92037
H         13.47084        20.39482         0.07844
H         17.27376         0.75105        -1.31129
H         15.94024        20.36385        -0.15585
H         19.43047         0.43177        -1.02299
H         18.38559        20.42464        -0.39487
H         22.22296         0.44035        -1.27493
H         21.02807        20.37706        -0.22155
H         24.60619         0.18515        -0.45162
H         23.43134        20.31117         0.20866
H         27.09246         0.13451        -0.20659
H         25.88817        20.32185         0.29982
H         29.57219         0.12100         0.02878
H         28.36977        20.33962         0.41997
H         31.72338         1.28756         0.05210
H         33.02179         3.52624         0.37985
H         33.05758         5.96531         0.28165
H         33.11762         7.90956         0.13657
H         33.11686        10.33557         0.03825
H         33.07251        12.31521        -0.30425
H         33.05743        14.73714        -0.16420
H         33.07206        16.69302         0.71175
H         30.85532        20.40008         0.53240
H         32.97928        19.16417         0.76164
