         429
 CSIRO Nanostructure Databank - Neutral Graphene Oxide Data Set
C          1.60483         3.37329        -1.61850
C          0.40820         3.99087        -1.27805
C          1.60661         6.03974        -0.71335
C          0.40162         5.31702        -0.84616
C          1.57282         7.46916        -0.41263
C          0.36921         8.15255        -0.11778
C          1.52422        10.30326         0.04100
C          0.34208         9.52296         0.08546
C          1.50119        11.76264         0.20708
C          0.33345        12.45726         0.52744
C          1.43087        14.62857         0.28522
C          0.30770        13.85939         0.60139
C          1.44336        16.09061         0.41544
C          0.41070        16.75672         1.11056
C          1.47866        18.91969         0.77651
C          0.42852        18.13038         1.29249
C          1.50669        20.37571         0.95468
C          0.46245        21.04189         1.59820
C          1.58628        23.19709         1.41883
C          0.51254        22.42389         1.84286
C          1.71973        24.64066         1.84974
C          0.42029        25.37573         2.05245
C          1.58308        27.51992         1.84446
C          0.40390        26.72467         2.13328
C          1.62665        28.92217         2.09143
C          0.54671        29.62218         2.74171
C          1.69507        31.78758         2.56524
C          0.57213        30.97460         2.94359
C          1.70878        33.18712         2.76460
C          0.56949        33.95310         3.17311
C          1.75748        36.09606         2.88385
C          0.60025        35.32590         3.25842
C          1.79471        37.52248         2.99793
C          3.99537         3.32256        -1.98757
C          2.85541         4.02054        -1.45014
C          4.05655         6.17468        -0.84515
C          2.85389         5.37541        -0.93712
C          4.01572         7.58306        -0.73459
C          2.76622         8.24338        -0.46329
C          4.03622        10.39221        -0.06801
C          2.73686         9.64390        -0.22632
C          3.92217        11.87005        -0.33074
C          2.68978        12.52276        -0.06287
C          3.77121        14.69154        -0.52646
C          2.62789        13.95059        -0.10401
C          3.62219        16.15889        -0.88047
C          2.51795        16.85646        -0.09508
C          3.61061        19.08630        -0.49020
C          2.51760        18.26109         0.07456
C          3.71656        20.51721        -0.15486
C          2.63075        21.15044         0.50390
C          3.77003        23.34017         0.25396
C          2.66229        22.56981         0.72533
C          3.75666        24.78566         0.34818
C          2.68493        25.44829         1.01685
C          3.73702        27.66476         0.66438
C          2.67221        26.86785         1.18184
C          3.79587        29.02833         0.94922
C          2.76291        29.67590         1.68664
C          3.93171        31.83306         1.52322
C          2.82307        31.11084         1.94525
C          4.08774        33.25207         1.81946
C          2.93575        33.95320         2.49255
C          4.06112        36.13725         2.00844
C          2.89665        35.42251         2.41798
C          4.10849        37.55629         2.20787
C          2.94308        38.22050         2.70968
C          6.55501         3.35049        -2.23347
C          5.32197         3.59020        -1.62327
C          6.51986         6.24928        -1.29531
C          5.34959         5.58242        -0.86942
C          6.44486         7.67392        -1.27713
C          5.23151         8.33546        -0.89316
C          6.34880        10.50981        -1.07726
C          5.20447         9.73996        -0.75708
C          6.30257        11.93810        -1.02361
C          5.05852        12.61006        -0.68901
C          6.11528        14.80826        -1.38845
C          4.96397        14.03401        -0.79705
C          6.13578        16.25783        -0.96848
C          4.94200        16.90245        -0.80693
C          6.13584        19.13204        -0.96585
C          4.88481        18.36765        -0.89383
C          6.05758        20.54895        -0.95477
C          4.88241        21.24019        -0.52248
C          6.03411        23.45664        -0.65051
C          4.89446        22.68559        -0.33272
C          6.03182        24.88478        -0.58560
C          4.83106        25.54031        -0.18742
C          6.10696        27.67102        -0.20531
C          4.72136        27.04553        -0.30663
C          6.20319        29.09071         0.20136
C          4.90158        29.85295         0.33163
C          6.24451        31.97384         0.43466
C          5.18580        31.12443         1.11346
C          6.24007        33.35257         0.49160
C          4.96660        34.06750         0.88871
C          6.31116        36.18747         1.01600
C          5.15835        35.47964         1.38075
C          6.40530        37.59255         1.33991
C          5.29513        38.25045         1.90131
C          8.96685         3.45159        -1.88686
C          7.73841         4.11171        -1.87636
C          8.95679         6.29027        -1.80058
C          7.74071         5.54741        -1.61773
C          8.84016         7.74816        -1.89422
C          7.61681         8.42173        -1.55216
C          8.72118        10.61882        -1.70360
C          7.55305         9.84400        -1.47718
C          8.69368        12.02031        -1.56255
C          7.47797        12.69163        -1.29114
C          8.61715        14.87371        -1.19377
C          7.44865        14.13177        -1.24478
C          8.62132        16.30356        -1.09924
C          7.38737        16.99708        -1.03494
C          8.61655        19.11282        -1.36743
C          7.34757        18.41666        -1.09386
C          8.58640        20.63022        -1.42239
C          7.25413        21.31695        -1.33799
C          8.52894        23.51508        -0.98257
C          7.25162        22.80526        -1.14748
C          8.48269        24.90144        -0.94480
C          7.24343        25.59247        -0.89235
C          8.51648        27.81929        -0.94318
C          7.19007        27.08833        -1.08860
C          8.57469        29.14232        -0.61534
C          7.39657        29.87561        -0.17940
C          8.47262        32.03662        -0.71788
C          7.37107        31.25696        -0.11259
C          8.52420        33.49501        -0.53016
C          7.37414        34.15038         0.05255
C          8.52440        36.34618        -0.15145
C          7.38411        35.53074         0.30264
C          8.69993        37.69090         0.44602
C          7.62444        38.29086         1.10047
C         11.27608         3.40667        -1.08549
C         10.17014         4.13849        -1.56983
C         11.51935         6.16548        -1.52006
C         10.21146         5.57102        -1.71395
C         11.81713         7.50280        -1.99273
C          9.88126         8.59018        -2.35688
C         11.13199        10.76921        -2.25996
C          9.91250         9.98794        -2.18240
C         11.24787        12.02680        -1.69090
C          9.95494        12.76253        -1.69142
C         11.16270        14.83123        -0.82583
C          9.92596        14.22229        -1.43187
C         11.13783        16.33346        -1.00071
C          9.89840        17.00145        -1.05670
C         11.07088        19.17047        -0.97339
C          9.89092        18.42965        -1.08889
C         11.01757        20.62644        -0.94260
C          9.80564        21.32634        -1.03601
C         11.05152        23.46937        -1.00958
C          9.78064        22.76567        -0.59893
C         11.05640        24.93443        -1.03646
C          9.76059        25.67089        -0.91975
C         11.04236        27.79474        -1.35328
C          9.71739        27.07972        -1.48136
C         11.07577        29.17921        -1.15313
C          9.89216        29.88366        -0.52403
C         10.99671        32.10125        -1.16915
C          9.76442        31.31165        -1.01557
C         10.92313        33.48394        -1.19346
C          9.70278        34.17393        -0.85488
C         11.06320        36.31922        -0.65783
C          9.73967        35.64832        -0.76300
C         11.10222        37.68396        -0.16068
C          9.94970        38.33169         0.32846
C         13.42899         3.40626         0.16628
C         12.43209         4.06182        -0.60364
C         13.71023         6.19699        -0.24391
C         12.54807         5.46159        -0.87431
C         13.97576         7.54757        -0.86867
C         12.87898         8.25081        -1.55297
C         13.86444        10.50158        -1.10810
C         13.08071         9.66089        -1.85005
C         13.89167        12.02859        -1.31075
C         12.49908        12.75068        -1.41533
C         13.74254        14.90947        -1.06448
C         12.44990        14.11855        -1.21433
C         13.59591        16.39040        -0.74365
C         12.35157        17.06876        -0.88931
C         13.53722        19.21141        -0.58608
C         12.32727        18.49507        -0.81798
C         13.45840        20.68534        -0.29214
C         12.23135        21.35098        -0.83405
C         13.52068        23.33737        -1.59231
C         12.22813        22.75547        -1.07337
C         13.48238        24.86240        -1.76988
C         12.25529        25.63986        -1.51822
C         13.50865        27.76086        -1.70186
C         12.26144        27.03805        -1.57716
C         13.47119        29.25337        -1.92839
C         12.25042        29.94317        -1.36184
C         13.42871        32.10277        -1.57084
C         12.24488        31.37461        -1.34106
C         13.39608        33.54484        -1.86158
C         12.06879        34.31759        -1.74643
C         13.50535        36.33792        -1.00436
C         12.21657        35.65922        -1.03385
C         13.53418        37.71545        -0.50672
C         12.34456        38.34517        -0.11032
C         15.34396         3.51481         1.65787
C         14.60892         4.05903         0.62488
C         16.06864         6.20416         0.67921
C         15.00193         5.35750        -0.07495
C         16.07585         7.70572         0.58757
C         15.06407         8.38051        -0.30245
C         15.68121        10.61997         0.74403
C         14.76010         9.83852        -0.11688
C         15.65537        12.09410         0.58083
C         14.75999        12.72204        -0.22930
C         15.82733        14.93866         0.36959
C         14.54600        14.21006         0.04209
C         15.97293        16.36370        -0.03320
C         14.75769        17.11419        -0.45297
C         16.05252        19.32510        -0.22320
C         14.74058        18.54601        -0.36717
C         15.95080        20.82905         0.02540
C         14.74345        21.47099        -0.45455
C         15.86466        23.65785        -0.48742
C         14.70851        22.80155        -0.79690
C         15.99310        24.96404        -1.17645
C         14.78043        25.63689        -1.69188
C         16.00266        27.80504        -1.71286
C         14.72822        27.11184        -1.63672
C         16.02472        29.24209        -1.72264
C         14.74689        29.92174        -1.45773
C         15.99781        32.16170        -1.52849
C         14.72136        31.43127        -1.38014
C         15.97948        33.54410        -1.62243
C         14.71348        34.29949        -1.79942
C         15.93175        36.58470        -1.62339
C         14.68437        35.73347        -1.40871
C         15.98136        37.80114        -0.72697
C         14.76186        38.38075        -0.33139
C         17.02554         3.75390         3.56407
C         16.52962         4.16252         2.24013
C         17.60223         6.46127         2.71456
C         16.85889         5.57999         1.79330
C         17.67730         7.87404         2.51226
C         16.82747         8.54183         1.55923
C         17.68891        10.73068         2.25886
C         16.76471         9.93064         1.50052
C         17.68766        12.15140         2.14145
C         16.46128        12.87736         1.60695
C         17.86094        14.99185         1.75224
C         16.74813        14.29287         1.15313
C         17.82941        16.46326         1.71487
C         17.05903        17.16981         0.66013
C         18.05875        19.37872         1.30842
C         17.02345        18.64481         0.70079
C         18.12175        20.82869         1.16408
C         17.05891        21.55732         0.46822
C         18.30776        23.89787         0.15539
C         17.04837        23.06927         0.26886
C         18.39151        25.09244        -0.61802
C         17.17625        25.67911        -1.17178
C         18.47111        27.71249        -1.86187
C         17.18742        27.05771        -1.61527
C         18.48287        29.29667        -1.98146
C         17.21357        29.99494        -1.73919
C         18.49212        32.11900        -1.54689
C         17.23114        31.41530        -1.58084
C         18.50922        33.54084        -1.47942
C         17.25159        34.27616        -1.71606
C         18.49063        36.42889        -1.14369
C         17.25100        35.79273        -1.63900
C         18.45153        37.76645        -0.65926
C         17.19244        38.41395        -0.44131
C         17.92312         4.52085         4.23172
C         19.11104         6.66947         4.61970
C         18.25095         5.87330         3.81991
C         19.29701         8.00865         4.34294
C         18.55611         8.65076         3.31510
C         19.67040        10.85316         3.67925
C         18.65300        10.07458         3.08123
C         19.74020        12.21164         3.45454
C         18.74289        12.89121         2.70724
C         19.92082        15.09883         3.06394
C         18.80819        14.34419         2.53735
C         20.02309        16.44998         2.95034
C         18.92138        17.25059         2.41033
C         20.13804        19.37738         2.64335
C         19.07850        18.68605         2.06989
C         20.16941        20.76947         2.57480
C         19.16180        21.45639         1.89314
C         20.62625        24.30331         0.90076
C         19.39872        23.63351         0.99535
C         20.75377        25.34612        -0.00221
C         19.62492        25.80917        -0.71154
C         20.89348        27.80437        -1.54154
C         19.70783        27.08138        -1.41863
C         20.91610        29.20461        -1.71859
C         19.75305        29.97437        -1.73629
C         20.93548        32.14664        -1.44905
C         19.73451        31.41005        -1.55915
C         20.93047        33.52448        -1.33230
C         19.71933        34.25769        -1.35294
C         20.89177        36.39469        -0.77378
C         19.70932        35.70773        -1.12916
C         20.86484        37.73791        -0.39608
C         19.65378        38.41537        -0.30098
O          7.04938        22.19633        -2.50028
O         16.99446         6.87960        -0.22736
O         15.19388         7.84123        -1.65219
O          3.88480        18.80523        -1.91145
O         10.98187         8.00976        -2.98670
O          6.48055        28.00123         1.15549
O         14.35795        10.12721         1.27994
O         14.09303        33.94383        -3.10507
O          8.80078        31.54517        -2.07701
O          8.67572        19.83131        -2.65102
O          8.75913        36.33022        -1.60383
O         17.38966        35.12883        -2.93729
O         17.63147         4.44049         1.29790
O         10.53402        25.50908         0.30090
O         16.01167        23.78897         1.00574
O         12.25698        10.18154        -2.85221
O          4.16146        33.52496         3.25029
O         19.22452        22.82513         2.10766
O         18.51426        28.41314        -3.13409
O         17.61252        17.01748         3.05279
O          5.45087         4.29306        -0.38778
O         14.68621        30.56384        -0.15755
O         10.01236        13.76815        -2.81346
O         14.21910        25.19918        -2.99862
O         17.24595        16.64807        -0.71758
O          2.35333        24.56240         3.18743
H          2.48839        25.48407         3.49689
O          3.24875        16.17449        -2.30011
H          3.25507        17.12903        -2.56699
O         13.29303         6.49090         1.13175
H         12.37026         6.82186         1.11809
O         14.49050        14.90439        -2.29418
H         14.61656        13.96858        -2.59655
O          4.36306        10.29103         1.37710
H          4.39627         9.33601         1.60017
O         15.56297        13.00735         2.77467
H         15.30102        12.09937         3.04272
O          6.75916        27.30083        -2.47821
H          7.49753        26.96477        -3.04404
O          4.19713        27.37362        -1.63539
H          4.91311        27.16741        -2.28770
O         15.52212         5.01876        -1.35928
H         16.14468         5.73987        -1.61671
O         11.63970        34.64345        -3.09390
H         12.45684        34.72356        -3.64054
O          4.48192        30.21035        -1.00469
H          4.22768        29.37367        -1.46759
O          5.77985        30.69434         2.37585
H          5.76933        31.45628         2.99410
O          4.17017        34.17322        -0.33905
H          4.73489        34.57730        -1.03178
O         13.70668        14.29441         1.23706
H         14.21866        13.88748         1.98896
O          9.47383        26.89942        -2.92592
H          9.61606        27.76756        -3.36111
O         13.64934        22.74762        -2.91528
H         14.10412        23.41540        -3.48278
O         14.58562        12.23118        -2.57910
H         14.05517        11.78352        -3.27457
O         10.20837        30.00795         0.89441
H         10.28868        29.10591         1.27059
O          9.77969        22.77726         0.88583
H          9.96289        23.71398         1.14406
O         16.67560        19.24418        -1.56075
H         16.93793        18.29849        -1.69035
O         13.45751        29.45940        -3.37879
H         12.73948        28.91102        -3.75852
O         15.77860        37.13374        -2.96470
H         16.07023        36.42616        -3.58648
O          5.83987        14.85083        -2.83129
H          4.94598        15.26249        -2.93605
O         11.02423        14.59008         0.61337
H         11.93299        14.60048         1.01338
O         13.23687        20.72538         1.17481
H         13.13666        21.66530         1.43956
H          1.59269         2.34916        -2.01817
H         -0.54100         3.44896        -1.39075
H         -0.56305         5.80185        -0.64992
H         -0.57819         7.60172        -0.05090
H         -0.62456        10.00249         0.29099
H         -0.59475        11.91123         0.74443
H         -0.63547        14.34452         0.88722
H         -0.42227        16.18240         1.53758
H         -0.39363        18.59347         1.85328
H         -0.41527        20.48894         1.95709
H         -0.31414        22.87847         2.40488
H         -0.50056        24.81277         2.25883
H         -0.53847        27.23708         2.37341
H         -0.33133        29.05681         3.08236
H         -0.28577        31.44815         3.44099
H         -0.36430        33.43256         3.42872
H         -0.29581        35.86557         3.59833
H          0.90182        38.05086         3.36246
H          3.79783         2.54961        -2.74519
H          2.97520        39.31133         2.84610
H          6.66429         2.55237        -2.98210
H          5.35223        39.33316         2.08862
H          8.99126         2.35739        -1.99474
H          7.72680        39.32212         1.47080
H         11.18169         2.31646        -0.97293
H         10.05394        39.35530         0.71960
H         13.23776         2.37485         0.50020
H         12.38714        39.37782         0.26681
H         14.98365         2.59035         2.13636
H         14.77293        39.35088         0.18861
H         16.68704         2.79405         3.98137
H         17.19156        39.39205         0.06395
H         18.34096         4.16936         5.18700
H         19.63406         6.20526         5.46807
H         19.97879         8.59313         4.97493
H         20.44137        10.37539         4.29771
H         20.56867        12.76965         3.90758
H         20.76643        14.55993         3.51054
H         20.96234        16.93792         3.24395
H         20.91119        18.85246         3.21769
H         20.94092        21.34229         3.10360
H         21.44935        24.02953         1.57269
H         21.71107        25.87738        -0.07243
H         21.85766        27.31323        -1.35023
H         21.89713        29.69670        -1.66865
H         21.90075        31.62375        -1.46289
H         21.89341        34.04475        -1.25228
H         21.85813        35.87451        -0.77954
H         21.80229        38.24689        -0.13277
H         19.62080        39.45525         0.05300
